BTMG
 OpenBabel07172113533D

 33 32  0  0  0  0  0  0  0  0999 V2000
    0.5335    0.0788    0.0000 C   0  0  0  0  0  0  0  0  0  0  0  0
   -0.5372    0.7522    0.0000 N   0  0  0  0  0  0  0  0  0  0  0  0
   -1.9106    0.2020    0.0000 C   0  0  0  0  0  0  0  0  0  0  0  0
   -2.1746   -0.6349    1.2666 C   0  0  0  0  0  0  0  0  0  0  0  0
   -1.9296   -0.0581    2.1662 H   0  0  0  0  0  0  0  0  0  0  0  0
   -1.5793   -1.5506    1.2593 H   0  0  0  0  0  0  0  0  0  0  0  0
   -3.2349   -0.9089    1.3223 H   0  0  0  0  0  0  0  0  0  0  0  0
   -2.8401    1.4310    0.0000 C   0  0  0  0  0  0  0  0  0  0  0  0
   -2.6562    2.0500    0.8848 H   0  0  0  0  0  0  0  0  0  0  0  0
   -3.8936    1.1276    0.0000 H   0  0  0  0  0  0  0  0  0  0  0  0
   -2.6562    2.0500   -0.8848 H   0  0  0  0  0  0  0  0  0  0  0  0
   -2.1746   -0.6349   -1.2666 C   0  0  0  0  0  0  0  0  0  0  0  0
   -1.5793   -1.5506   -1.2593 H   0  0  0  0  0  0  0  0  0  0  0  0
   -1.9296   -0.0581   -2.1662 H   0  0  0  0  0  0  0  0  0  0  0  0
   -3.2349   -0.9089   -1.3223 H   0  0  0  0  0  0  0  0  0  0  0  0
    0.6393   -1.3636    0.0000 N   0  0  0  0  0  0  0  0  0  0  0  0
    1.8063    0.7863    0.0000 N   0  0  0  0  0  0  0  0  0  0  0  0
    1.3235   -1.8515   -1.2047 C   0  0  0  0  0  0  0  0  0  0  0  0
    1.3062   -2.9470   -1.1951 H   0  0  0  0  0  0  0  0  0  0  0  0
    2.3714   -1.5168   -1.2674 H   0  0  0  0  0  0  0  0  0  0  0  0
    0.7880   -1.5120   -2.0970 H   0  0  0  0  0  0  0  0  0  0  0  0
    1.3235   -1.8515    1.2047 C   0  0  0  0  0  0  0  0  0  0  0  0
    0.7880   -1.5120    2.0970 H   0  0  0  0  0  0  0  0  0  0  0  0
    2.3714   -1.5168    1.2674 H   0  0  0  0  0  0  0  0  0  0  0  0
    1.3062   -2.9470    1.1951 H   0  0  0  0  0  0  0  0  0  0  0  0
    1.9762    1.6034   -1.2056 C   0  0  0  0  0  0  0  0  0  0  0  0
    2.9869    2.0276   -1.2059 H   0  0  0  0  0  0  0  0  0  0  0  0
    1.2437    2.4243   -1.2699 H   0  0  0  0  0  0  0  0  0  0  0  0
    1.8722    0.9780   -2.0977 H   0  0  0  0  0  0  0  0  0  0  0  0
    1.9762    1.6034    1.2056 C   0  0  0  0  0  0  0  0  0  0  0  0
    1.8722    0.9780    2.0977 H   0  0  0  0  0  0  0  0  0  0  0  0
    1.2437    2.4243    1.2699 H   0  0  0  0  0  0  0  0  0  0  0  0
    2.9869    2.0276    1.2059 H   0  0  0  0  0  0  0  0  0  0  0  0
  1  2  2  0  0  0  0
  2  3  1  0  0  0  0
  3  4  1  0  0  0  0
  4  7  1  0  0  0  0
  4  5  1  0  0  0  0
  6  4  1  0  0  0  0
  8 10  1  0  0  0  0
  8  3  1  0  0  0  0
  8  9  1  0  0  0  0
 11  8  1  0  0  0  0
 12 13  1  0  0  0  0
 12  3  1  0  0  0  0
 14 12  1  0  0  0  0
 15 12  1  0  0  0  0
 16  1  1  0  0  0  0
 16 22  1  0  0  0  0
 17  1  1  0  0  0  0
 17 30  1  0  0  0  0
 18 19  1  0  0  0  0
 18 16  1  0  0  0  0
 20 18  1  0  0  0  0
 21 18  1  0  0  0  0
 22 24  1  0  0  0  0
 22 23  1  0  0  0  0
 25 22  1  0  0  0  0
 26 17  1  0  0  0  0
 27 26  1  0  0  0  0
 28 26  1  0  0  0  0
 29 26  1  0  0  0  0
 30 33  1  0  0  0  0
 30 32  1  0  0  0  0
 30 31  1  0  0  0  0
M  END
$$$$
