1-chloro-4-methoxybenzene
 OpenBabel07172113533D

 16 16  0  0  0  0  0  0  0  0999 V2000
    1.4078   -0.0199    0.0000 C   0  0  0  0  0  0  0  0  0  0  0  0
   -1.3651    0.2781    0.0000 C   0  0  0  0  0  0  0  0  0  0  0  0
    0.5934   -1.1465    0.0000 C   0  0  0  0  0  0  0  0  0  0  0  0
    0.8504    1.2614    0.0000 C   0  0  0  0  0  0  0  0  0  0  0  0
   -0.5310    1.4065    0.0000 C   0  0  0  0  0  0  0  0  0  0  0  0
   -0.7971   -1.0012    0.0000 C   0  0  0  0  0  0  0  0  0  0  0  0
    1.0353   -2.1373    0.0000 H   0  0  0  0  0  0  0  0  0  0  0  0
    1.4939    2.1347    0.0000 H   0  0  0  0  0  0  0  0  0  0  0  0
   -0.9883    2.3907    0.0000 H   0  0  0  0  0  0  0  0  0  0  0  0
   -1.4172   -1.8900    0.0000 H   0  0  0  0  0  0  0  0  0  0  0  0
   -2.7049    0.5340    0.0000 O   0  0  0  0  0  0  0  0  0  0  0  0
   -3.5995   -0.5675    0.0000 C   0  0  0  0  0  0  0  0  0  0  0  0
   -3.4722   -1.1908    0.8950 H   0  0  0  0  0  0  0  0  0  0  0  0
   -3.4722   -1.1908   -0.8950 H   0  0  0  0  0  0  0  0  0  0  0  0
   -4.6027   -0.1377    0.0000 H   0  0  0  0  0  0  0  0  0  0  0  0
    3.1594   -0.2069    0.0000 Cl  0  0  0  0  0  0  0  0  0  0  0  0
  1  3  2  0  0  0  0
  1  4  1  0  0  0  0
  1 16  1  0  0  0  0
  2  5  1  0  0  0  0
  2  6  2  0  0  0  0
  2 11  1  0  0  0  0
  3  6  1  0  0  0  0
  3  7  1  0  0  0  0
  4  5  2  0  0  0  0
  4  8  1  0  0  0  0
  5  9  1  0  0  0  0
  6 10  1  0  0  0  0
 11 12  1  0  0  0  0
 12 15  1  0  0  0  0
 12 13  1  0  0  0  0
 14 12  1  0  0  0  0
M  END
$$$$
