1-ethyl-4-iodobenzene
 OpenBabel07172113533D

 18 18  0  0  0  0  0  0  0  0999 V2000
   -0.2190   -0.1013    0.0000 C   0  0  0  0  0  0  0  0  0  0  0  0
    2.5782   -0.3545    0.0000 C   0  0  0  0  0  0  0  0  0  0  0  0
    0.4692   -0.1643   -1.2121 C   0  0  0  0  0  0  0  0  0  0  0  0
    0.4692   -0.1643    1.2121 C   0  0  0  0  0  0  0  0  0  0  0  0
    1.8591   -0.2903    1.2002 C   0  0  0  0  0  0  0  0  0  0  0  0
    1.8591   -0.2903   -1.2002 C   0  0  0  0  0  0  0  0  0  0  0  0
   -0.0656   -0.1208   -2.1548 H   0  0  0  0  0  0  0  0  0  0  0  0
   -0.0656   -0.1208    2.1548 H   0  0  0  0  0  0  0  0  0  0  0  0
    2.3909   -0.3440    2.1478 H   0  0  0  0  0  0  0  0  0  0  0  0
    2.3909   -0.3440   -2.1478 H   0  0  0  0  0  0  0  0  0  0  0  0
    4.0892   -0.4511    0.0000 C   0  0  0  0  0  0  0  0  0  0  0  0
    4.7767    0.9263    0.0000 C   0  0  0  0  0  0  0  0  0  0  0  0
    4.4927    1.5076    0.8843 H   0  0  0  0  0  0  0  0  0  0  0  0
    4.4927    1.5076   -0.8843 H   0  0  0  0  0  0  0  0  0  0  0  0
    5.8673    0.8176    0.0000 H   0  0  0  0  0  0  0  0  0  0  0  0
    4.4195   -1.0188    0.8790 H   0  0  0  0  0  0  0  0  0  0  0  0
    4.4195   -1.0188   -0.8790 H   0  0  0  0  0  0  0  0  0  0  0  0
   -2.3327    0.0844    0.0000 I   0  0  0  0  0  0  0  0  0  0  0  0
  1 18  1  0  0  0  0
  1  4  1  0  0  0  0
  2 11  1  0  0  0  0
  2  5  1  0  0  0  0
  3  6  1  0  0  0  0
  3  1  2  0  0  0  0
  4  8  1  0  0  0  0
  5  4  2  0  0  0  0
  5  9  1  0  0  0  0
  6  2  2  0  0  0  0
  7  3  1  0  0  0  0
 10  6  1  0  0  0  0
 11 12  1  0  0  0  0
 11 16  1  0  0  0  0
 12 15  1  0  0  0  0
 12 13  1  0  0  0  0
 14 12  1  0  0  0  0
 17 11  1  0  0  0  0
M  END
$$$$
