1-iodo-4-(trifluoromethyl)benzene
 OpenBabel07172113533D

 15 15  0  0  0  0  0  0  0  0999 V2000
   -0.7796   -0.0119    0.0000 C   0  0  0  0  0  0  0  0  0  0  0  0
    2.0013   -0.0397    0.0000 C   0  0  0  0  0  0  0  0  0  0  0  0
   -0.0910   -0.0198   -1.2149 C   0  0  0  0  0  0  0  0  0  0  0  0
   -0.0910   -0.0198    1.2149 C   0  0  0  0  0  0  0  0  0  0  0  0
    1.3031   -0.0332    1.2095 C   0  0  0  0  0  0  0  0  0  0  0  0
    1.3031   -0.0332   -1.2095 C   0  0  0  0  0  0  0  0  0  0  0  0
   -0.6296   -0.0186   -2.1560 H   0  0  0  0  0  0  0  0  0  0  0  0
   -0.6296   -0.0186    2.1560 H   0  0  0  0  0  0  0  0  0  0  0  0
    1.8455   -0.0467    2.1492 H   0  0  0  0  0  0  0  0  0  0  0  0
    1.8455   -0.0467   -2.1492 H   0  0  0  0  0  0  0  0  0  0  0  0
    3.5056    0.0045    0.0000 C   0  0  0  0  0  0  0  0  0  0  0  0
    4.0254   -0.6009   -1.0904 F   0  0  0  0  0  0  0  0  0  0  0  0
    3.9666    1.2770    0.0000 F   0  0  0  0  0  0  0  0  0  0  0  0
    4.0254   -0.6009    1.0904 F   0  0  0  0  0  0  0  0  0  0  0  0
   -2.8962    0.0070    0.0000 I   0  0  0  0  0  0  0  0  0  0  0  0
  1 15  1  0  0  0  0
  1  4  1  0  0  0  0
  2 11  1  0  0  0  0
  2  5  1  0  0  0  0
  3  6  1  0  0  0  0
  3  1  2  0  0  0  0
  4  8  1  0  0  0  0
  5  4  2  0  0  0  0
  5  9  1  0  0  0  0
  6  2  2  0  0  0  0
  7  3  1  0  0  0  0
 10  6  1  0  0  0  0
 11 13  1  0  0  0  0
 11 14  1  0  0  0  0
 12 11  1  0  0  0  0
M  END
$$$$
