MeCN
 OpenBabel07172116153D

  6  5  0  0  0  0  0  0  0  0999 V2000
   -0.4871    0.0073   -0.0081 C   0  0  0  0  0  0  0  0  0  0  0  0
    0.9687   -0.0143    0.0162 C   0  0  0  0  0  0  0  0  0  0  0  0
    2.1203   -0.0316    0.0352 N   0  0  0  0  0  0  0  0  0  0  0  0
   -0.8679   -0.7734   -0.6694 H   0  0  0  0  0  0  0  0  0  0  0  0
   -0.8868   -0.1611    0.9937 H   0  0  0  0  0  0  0  0  0  0  0  0
   -0.8472    0.9730   -0.3677 H   0  0  0  0  0  0  0  0  0  0  0  0
  1  2  1  0  0  0  0
  1  5  1  0  0  0  0
  2  3  3  0  0  0  0
  4  1  1  0  0  0  0
  6  1  1  0  0  0  0
M  END
$$$$
