THF
 OpenBabel07172116153D

 13 13  0  0  0  0  0  0  0  0999 V2000
    1.0058    0.3743    0.0927 C   0  0  0  0  0  0  0  0  0  0  0  0
    0.2343   -0.8318    0.6416 C   0  0  0  0  0  0  0  0  0  0  0  0
   -0.9557   -0.8969   -0.3193 C   0  0  0  0  0  0  0  0  0  0  0  0
   -1.2175    0.4502   -0.7302 O   0  0  0  0  0  0  0  0  0  0  0  0
   -0.1372    1.3005   -0.3290 C   0  0  0  0  0  0  0  0  0  0  0  0
    1.6013    0.0800   -0.7770 H   0  0  0  0  0  0  0  0  0  0  0  0
    1.6758    0.8320    0.8234 H   0  0  0  0  0  0  0  0  0  0  0  0
   -0.1070   -0.6310    1.6617 H   0  0  0  0  0  0  0  0  0  0  0  0
    0.8193   -1.7536    0.6554 H   0  0  0  0  0  0  0  0  0  0  0  0
   -0.7165   -1.5039   -1.2026 H   0  0  0  0  0  0  0  0  0  0  0  0
   -1.8603   -1.3038    0.1402 H   0  0  0  0  0  0  0  0  0  0  0  0
    0.1210    1.9535   -1.1667 H   0  0  0  0  0  0  0  0  0  0  0  0
   -0.4633    1.9303    0.5097 H   0  0  0  0  0  0  0  0  0  0  0  0
  1  2  1  0  0  0  0
  1  7  1  0  0  0  0
  2  9  1  0  0  0  0
  2  8  1  0  0  0  0
  3 11  1  0  0  0  0
  3  2  1  0  0  0  0
  4  5  1  0  0  0  0
  4  3  1  0  0  0  0
  5  1  1  0  0  0  0
  5 13  1  0  0  0  0
  6  1  1  0  0  0  0
 10  3  1  0  0  0  0
 12  5  1  0  0  0  0
M  END
$$$$
