2b,Boronic_Ester
 OpenBabel07172116153D

 52 55  0  0  1  0  0  0  0  0999 V2000
   -4.7167   -0.8455    1.3389 C   0  0  0  0  0  0  0  0  0  0  0  0
   -4.2542   -0.0002    0.1515 C   0  0  0  0  0  0  0  0  0  0  0  0
   -3.2588   -0.7898   -0.5585 O   0  0  0  0  0  0  0  0  0  0  0  0
   -5.4171    0.2747   -0.7894 C   0  0  0  0  0  0  0  0  0  0  0  0
   -3.4297    1.2656    0.5776 C   0  0  0  0  0  0  0  0  0  0  0  0
   -3.3996    2.3542   -0.4962 C   0  0  0  0  0  0  0  0  0  0  0  0
   -3.8113    1.8596    1.9251 C   0  0  0  0  0  0  0  0  0  0  0  0
   -2.0804    0.7325    0.6691 O   0  0  0  0  0  0  0  0  0  0  0  0
   -2.0179   -0.3934   -0.1210 B   0  0  0  0  0  0  0  0  0  0  0  0
   -0.6800   -1.0963   -0.4608 C   0  0  0  0  0  0  0  0  0  0  0  0
   -0.5862   -2.2597   -1.2403 C   0  0  0  0  0  0  0  0  0  0  0  0
   -1.8059   -2.9443   -1.8133 C   0  0  0  0  0  0  0  0  0  0  0  0
    0.6806   -2.8262   -1.5178 C   0  0  0  0  0  0  0  0  0  0  0  0
    1.8672   -2.2936   -1.0481 C   0  0  0  0  0  0  0  0  0  0  0  0
    1.7798   -1.1435   -0.2605 C   0  0  0  0  0  0  0  0  0  0  0  0
    0.5325   -0.5418    0.0227 C   0  0  0  0  0  0  0  0  0  0  0  0
    0.8777    0.6003    0.8130 C   0  0  0  0  0  0  0  0  0  0  0  0
    2.1787    0.6855    0.9985 N   0  0  0  0  0  0  0  0  0  0  0  0
    2.7393   -0.3892    0.3705 N   0  0  0  0  0  0  0  0  0  0  0  0
    4.1786   -0.5045    0.2060 C   0  0  1  0  0  0  0  0  0  0  0  0
    4.6191    0.1285   -0.9865 O   0  0  0  0  0  0  0  0  0  0  0  0
    4.9184    1.5157   -0.7963 C   0  0  0  0  0  0  0  0  0  0  0  0
    6.1836    1.6806    0.0647 C   0  0  0  0  0  0  0  0  0  0  0  0
    6.3174    0.4914    1.0358 C   0  0  0  0  0  0  0  0  0  0  0  0
    4.9304   -0.0051    1.4491 C   0  0  0  0  0  0  0  0  0  0  0  0
   -5.5146   -0.3539    1.8996 H   0  0  0  0  0  0  0  0  0  0  0  0
   -5.0948   -1.7997    0.9680 H   0  0  0  0  0  0  0  0  0  0  0  0
   -3.8911   -1.0537    2.0219 H   0  0  0  0  0  0  0  0  0  0  0  0
   -5.0828    0.7389   -1.7163 H   0  0  0  0  0  0  0  0  0  0  0  0
   -5.9143   -0.6634   -1.0440 H   0  0  0  0  0  0  0  0  0  0  0  0
   -6.1538    0.9303   -0.3172 H   0  0  0  0  0  0  0  0  0  0  0  0
   -3.1253    1.9434   -1.4696 H   0  0  0  0  0  0  0  0  0  0  0  0
   -2.6496    3.0989   -0.2245 H   0  0  0  0  0  0  0  0  0  0  0  0
   -4.3647    2.8565   -0.5913 H   0  0  0  0  0  0  0  0  0  0  0  0
   -3.1736    2.7187    2.1425 H   0  0  0  0  0  0  0  0  0  0  0  0
   -4.8494    2.2028    1.9199 H   0  0  0  0  0  0  0  0  0  0  0  0
   -3.6873    1.1381    2.7316 H   0  0  0  0  0  0  0  0  0  0  0  0
   -2.4948   -3.2640   -1.0285 H   0  0  0  0  0  0  0  0  0  0  0  0
   -2.3758   -2.2781   -2.4637 H   0  0  0  0  0  0  0  0  0  0  0  0
   -1.5196   -3.8241   -2.3929 H   0  0  0  0  0  0  0  0  0  0  0  0
    0.7208   -3.7185   -2.1346 H   0  0  0  0  0  0  0  0  0  0  0  0
    2.8187   -2.7467   -1.3012 H   0  0  0  0  0  0  0  0  0  0  0  0
    0.2170    1.3362    1.2412 H   0  0  0  0  0  0  0  0  0  0  0  0
    4.3812   -1.5633    0.0369 H   0  0  0  0  0  0  0  0  0  0  0  0
    4.0590    2.0121   -0.3345 H   0  0  0  0  0  0  0  0  0  0  0  0
    5.0465    1.9278   -1.7970 H   0  0  0  0  0  0  0  0  0  0  0  0
    7.0739    1.7478   -0.5664 H   0  0  0  0  0  0  0  0  0  0  0  0
    6.1155    2.6208    0.6222 H   0  0  0  0  0  0  0  0  0  0  0  0
    6.8992    0.7757    1.9161 H   0  0  0  0  0  0  0  0  0  0  0  0
    6.8642   -0.3216    0.5482 H   0  0  0  0  0  0  0  0  0  0  0  0
    4.3612    0.8001    1.9153 H   0  0  0  0  0  0  0  0  0  0  0  0
    4.9885   -0.8169    2.1783 H   0  0  0  0  0  0  0  0  0  0  0  0
  1 26  1  0  0  0  0
  1 28  1  0  0  0  0
  2  5  1  0  0  0  0
  2  1  1  0  0  0  0
  3  9  1  0  0  0  0
  3  2  1  0  0  0  0
  4 31  1  0  0  0  0
  4  2  1  0  0  0  0
  5  8  1  0  0  0  0
  5  7  1  0  0  0  0
  6 33  1  0  0  0  0
  6  5  1  0  0  0  0
  7 35  1  0  0  0  0
  7 37  1  0  0  0  0
  9  8  1  0  0  0  0
 10  9  1  0  0  0  0
 10 16  1  0  0  0  0
 11 10  2  0  0  0  0
 12 11  1  0  0  0  0
 12 38  1  0  0  0  0
 13 11  1  0  0  0  0
 13 14  2  0  0  0  0
 14 15  1  0  0  0  0
 15 16  2  0  0  0  0
 15 19  1  0  0  0  0
 16 17  1  0  0  0  0
 17 18  2  0  0  0  0
 17 43  1  0  0  0  0
 19 18  1  0  0  0  0
 20 44  1  6  0  0  0
 20 19  1  0  0  0  0
 20 25  1  0  0  0  0
 21 22  1  0  0  0  0
 21 20  1  0  0  0  0
 22 45  1  0  0  0  0
 22 23  1  0  0  0  0
 23 48  1  0  0  0  0
 23 24  1  0  0  0  0
 24 25  1  0  0  0  0
 24 49  1  0  0  0  0
 25 51  1  0  0  0  0
 25 52  1  0  0  0  0
 27  1  1  0  0  0  0
 29  4  1  0  0  0  0
 30  4  1  0  0  0  0
 32  6  1  0  0  0  0
 34  6  1  0  0  0  0
 36  7  1  0  0  0  0
 39 12  1  0  0  0  0
 40 12  1  0  0  0  0
 41 13  1  0  0  0  0
 42 14  1  0  0  0  0
 46 22  1  0  0  0  0
 47 23  1  0  0  0  0
 50 24  1  0  0  0  0
M  END
$$$$
