2c, Trifluoroborate.sdf
  ChemDraw07172116383D

 34 36  0  0  1  0  0  0  0  0999 V2000
    3.8160    0.5763   -0.2087 C   0  0  0  0  0  0  0  0  0  0  0  0
    1.8549    1.1388   -0.4563 C   0  0  0  0  0  0  0  0  0  0  0  0
    5.5133    2.0848    0.1315 B   0  0  0  0  0  0  0  0  0  0  0  0
    4.1523   -1.4742   -0.2855 C   0  0  0  0  0  0  0  0  0  0  0  0
    0.4174   -0.2233   -0.7297 C   0  0  0  0  0  0  0  0  0  0  0  0
    0.9180    2.8564   -0.5071 C   0  0  0  0  0  0  0  0  0  0  0  0
    6.8891    1.9426   -1.3291 F   0  0  0  0  0  0  0  0  0  0  0  0
    6.4288    1.7178    1.8849 F   0  0  0  0  0  0  0  0  0  0  0  0
    2.7307   -2.7436   -0.5499 C   0  0  0  0  0  0  0  0  0  0  0  0
    6.1492   -2.1509   -0.0585 C   0  0  0  0  0  0  0  0  0  0  0  0
   -1.2441    0.7616   -0.9250 N   0  0  0  0  0  0  0  0  0  0  0  0
    0.7683   -2.1553   -0.7665 C   0  0  0  0  0  0  0  0  0  0  0  0
   -0.9999    2.6675   -0.8015 N   0  0  0  0  0  0  0  0  0  0  0  0
   -3.0656   -0.0762   -1.3556 C   0  0  0  0  0  0  0  0  0  0  0  0
   -3.6735   -1.3029    0.1180 O   0  0  0  0  0  0  0  0  0  0  0  0
   -4.5745    1.3944   -1.8308 C   0  0  0  0  0  0  0  0  0  0  0  0
   -4.1552   -0.3303    1.8177 C   0  0  0  0  0  0  0  0  0  0  0  0
   -5.3301    2.4126   -0.0761 C   0  0  0  0  0  0  0  0  0  0  0  0
   -5.8111    1.0040    1.4924 C   0  0  0  0  0  0  0  0  0  0  0  0
   -6.5741    3.2472   -0.4534 H   0  0  0  0  0  0  0  0  0  0  0  0
   -4.2492    3.3925    0.4143 H   0  0  0  0  0  0  0  0  0  0  0  0
   -6.1531    1.7438    2.8056 H   0  0  0  0  0  0  0  0  0  0  0  0
   -7.0524    0.1657    1.1046 H   0  0  0  0  0  0  0  0  0  0  0  0
   -4.4968   -1.4348    2.8332 H   0  0  0  0  0  0  0  0  0  0  0  0
   -2.9255    0.4453    2.3430 H   0  0  0  0  0  0  0  0  0  0  0  0
   -2.8617   -1.0304   -2.5492 H   0  0  0  0  0  0  0  0  0  0  0  0
   -3.9967    2.4074   -2.8332 H   0  0  0  0  0  0  0  0  0  0  0  0
   -5.7223    0.6296   -2.5271 H   0  0  0  0  0  0  0  0  0  0  0  0
    6.2476   -3.6869   -0.1539 H   0  0  0  0  0  0  0  0  0  0  0  0
    7.0524   -1.5078   -1.1281 H   0  0  0  0  0  0  0  0  0  0  0  0
    6.7198   -1.6809    1.2934 H   0  0  0  0  0  0  0  0  0  0  0  0
    3.0404   -4.2430   -0.5936 H   0  0  0  0  0  0  0  0  0  0  0  0
   -0.3574   -3.1811   -0.8739 H   0  0  0  0  0  0  0  0  0  0  0  0
    1.5168    4.2430   -0.3453 H   0  0  0  0  0  0  0  0  0  0  0  0
  1  3  1  0      
  2  1  2  0      
  3  8  1  0      
  4  1  1  0      
  4 10  1  0      
  5  2  1  0      
  6  2  1  0      
  6 34  1  0      
  7  3  1  0      
  9  4  2  0      
 10 31  1  0      
 11 13  1  0      
 11  5  1  0      
 12  5  2  0      
 12  9  1  0      
 13  6  2  0      
 14 26  1  6      
 14 11  1  0      
 14 15  1  0      
 15 17  1  0      
 16 14  1  0      
 16 18  1  0      
 17 25  1  0      
 17 24  1  0      
 18 21  1  0      
 18 19  1  0      
 19 17  1  0      
 19 22  1  0      
 20 18  1  0      
 23 19  1  0      
 27 16  1  0      
 28 16  1  0      
 29 10  1  0      
 30 10  1  0      
 32  9  1  0      
 33 12  1  0      
M  END
$$$$
