AdBrettPhos
 OpenBabel07172113533D

107114  0  0  1  0  0  0  0  0999 V2000
   -1.0128   -1.3782    4.5160 H   0  0  0  0  0  0  0  0  0  0  0  0
   -0.4189   -1.2373    3.6210 C   0  0  0  0  0  0  0  0  0  0  0  0
    1.1714   -0.8489    1.3302 C   0  0  0  0  0  0  0  0  0  0  0  0
   -0.9610   -0.6423    2.4852 C   0  0  0  0  0  0  0  0  0  0  0  0
    0.8995   -1.6876    3.6125 C   0  0  0  0  0  0  0  0  0  0  0  0
    1.6826   -1.5078    2.4789 C   0  0  0  0  0  0  0  0  0  0  0  0
   -0.1942   -0.4504    1.3051 C   0  0  0  0  0  0  0  0  0  0  0  0
    1.2943   -2.1743    4.4964 H   0  0  0  0  0  0  0  0  0  0  0  0
   -0.9186    0.1294   -0.3457 P   0  0  1  0  0  0  0  0  0  0  0  0
    2.1680   -0.6025    0.2150 C   0  0  0  0  0  0  0  0  0  0  0  0
    4.1015   -0.1646   -1.8200 C   0  0  0  0  0  0  0  0  0  0  0  0
    2.3374   -1.5417   -0.8279 C   0  0  0  0  0  0  0  0  0  0  0  0
    3.0325    0.5241    0.2758 C   0  0  0  0  0  0  0  0  0  0  0  0
    3.9646    0.7206   -0.7489 C   0  0  0  0  0  0  0  0  0  0  0  0
    3.2874   -1.2950   -1.8255 C   0  0  0  0  0  0  0  0  0  0  0  0
    4.6146    1.5897   -0.7008 H   0  0  0  0  0  0  0  0  0  0  0  0
    3.4051   -2.0151   -2.6318 H   0  0  0  0  0  0  0  0  0  0  0  0
    1.5770   -2.8649   -0.8651 C   0  0  0  0  0  0  0  0  0  0  0  0
    0.7463   -2.7910   -0.1575 H   0  0  0  0  0  0  0  0  0  0  0  0
    0.9850   -3.1883   -2.2486 C   0  0  0  0  0  0  0  0  0  0  0  0
    0.3949   -2.3525   -2.6361 H   0  0  0  0  0  0  0  0  0  0  0  0
    0.3357   -4.0703   -2.1865 H   0  0  0  0  0  0  0  0  0  0  0  0
    1.7666   -3.4165   -2.9826 H   0  0  0  0  0  0  0  0  0  0  0  0
    2.4809   -4.0222   -0.3898 C   0  0  0  0  0  0  0  0  0  0  0  0
    1.9177   -4.9634   -0.3539 H   0  0  0  0  0  0  0  0  0  0  0  0
    2.8864   -3.8194    0.6053 H   0  0  0  0  0  0  0  0  0  0  0  0
    3.3257   -4.1620   -1.0755 H   0  0  0  0  0  0  0  0  0  0  0  0
    5.1122    0.0769   -2.9331 C   0  0  0  0  0  0  0  0  0  0  0  0
    5.0197   -0.7605   -3.6388 H   0  0  0  0  0  0  0  0  0  0  0  0
    6.5606    0.0768   -2.4086 C   0  0  0  0  0  0  0  0  0  0  0  0
    6.7914   -0.8576   -1.8855 H   0  0  0  0  0  0  0  0  0  0  0  0
    6.7302    0.9022   -1.7069 H   0  0  0  0  0  0  0  0  0  0  0  0
    7.2725    0.1917   -3.2351 H   0  0  0  0  0  0  0  0  0  0  0  0
    4.8072    1.3703   -3.7120 C   0  0  0  0  0  0  0  0  0  0  0  0
    4.8997    2.2529   -3.0679 H   0  0  0  0  0  0  0  0  0  0  0  0
    3.7885    1.3574   -4.1146 H   0  0  0  0  0  0  0  0  0  0  0  0
    5.5053    1.4937   -4.5490 H   0  0  0  0  0  0  0  0  0  0  0  0
    3.0581    1.4947    1.4612 C   0  0  0  0  0  0  0  0  0  0  0  0
    2.1023    1.4104    1.9889 H   0  0  0  0  0  0  0  0  0  0  0  0
    3.2452    2.9706    1.0573 C   0  0  0  0  0  0  0  0  0  0  0  0
    2.5743    3.2688    0.2486 H   0  0  0  0  0  0  0  0  0  0  0  0
    4.2722    3.1714    0.7307 H   0  0  0  0  0  0  0  0  0  0  0  0
    3.0533    3.6206    1.9194 H   0  0  0  0  0  0  0  0  0  0  0  0
    4.1737    1.1143    2.4600 C   0  0  0  0  0  0  0  0  0  0  0  0
    4.1498    1.7790    3.3330 H   0  0  0  0  0  0  0  0  0  0  0  0
    5.1585    1.2160    1.9874 H   0  0  0  0  0  0  0  0  0  0  0  0
    4.0725    0.0826    2.8001 H   0  0  0  0  0  0  0  0  0  0  0  0
   -2.2679   -0.2302    2.4463 O   0  0  0  0  0  0  0  0  0  0  0  0
    2.9796   -1.9564    2.3912 O   0  0  0  0  0  0  0  0  0  0  0  0
   -3.0553   -0.3386    3.6192 C   0  0  0  0  0  0  0  0  0  0  0  0
   -4.0315    0.0771    3.3622 H   0  0  0  0  0  0  0  0  0  0  0  0
   -2.6247    0.2367    4.4494 H   0  0  0  0  0  0  0  0  0  0  0  0
   -3.1798   -1.3841    3.9315 H   0  0  0  0  0  0  0  0  0  0  0  0
    3.5192   -2.6689    3.4915 C   0  0  0  0  0  0  0  0  0  0  0  0
    4.5290   -2.9561    3.1927 H   0  0  0  0  0  0  0  0  0  0  0  0
    2.9350   -3.5720    3.7138 H   0  0  0  0  0  0  0  0  0  0  0  0
    3.5739   -2.0443    4.3936 H   0  0  0  0  0  0  0  0  0  0  0  0
   -2.5141   -0.9397   -0.6930 C   0  0  2  0  0  0  0  0  0  0  0  0
   -3.4265   -3.3249   -0.6069 C   0  0  2  0  0  0  0  0  0  0  0  0
   -5.0267   -1.3904   -0.6576 C   0  0  1  0  0  0  0  0  0  0  0  0
   -4.7786   -2.8007   -0.0881 C   0  0  0  0  0  0  0  0  0  0  0  0
   -3.8963   -0.4351   -0.2045 C   0  0  0  0  0  0  0  0  0  0  0  0
   -2.2985   -2.3757   -0.1442 C   0  0  0  0  0  0  0  0  0  0  0  0
   -3.2352   -4.3259   -0.1960 H   0  0  0  0  0  0  0  0  0  0  0  0
   -5.9847   -1.0038   -0.2825 H   0  0  0  0  0  0  0  0  0  0  0  0
   -5.5903   -3.4795   -0.3860 H   0  0  0  0  0  0  0  0  0  0  0  0
   -4.1023    0.5619   -0.6093 H   0  0  0  0  0  0  0  0  0  0  0  0
   -1.3336   -2.7694   -0.4842 H   0  0  0  0  0  0  0  0  0  0  0  0
   -1.4091    1.9834   -0.1496 C   0  0  2  0  0  0  0  0  0  0  0  0
   -2.2297    3.9670   -1.5332 C   0  0  2  0  0  0  0  0  0  0  0  0
   -2.5687    3.9618    0.9588 C   0  0  1  0  0  0  0  0  0  0  0  0
   -3.1864    4.3689   -0.3933 C   0  0  0  0  0  0  0  0  0  0  0  0
   -2.3509    2.4301    0.9965 C   0  0  0  0  0  0  0  0  0  0  0  0
   -2.0149    2.4379   -1.5080 C   0  0  0  0  0  0  0  0  0  0  0  0
   -4.1606    3.8779   -0.5276 H   0  0  0  0  0  0  0  0  0  0  0  0
   -3.3180    1.9253    0.9262 H   0  0  0  0  0  0  0  0  0  0  0  0
   -2.9771    1.9447   -1.6849 H   0  0  0  0  0  0  0  0  0  0  0  0
   -2.6681    4.2467   -2.5010 H   0  0  0  0  0  0  0  0  0  0  0  0
   -3.2511    4.2410    1.7739 H   0  0  0  0  0  0  0  0  0  0  0  0
   -3.3691    5.4525   -0.4166 H   0  0  0  0  0  0  0  0  0  0  0  0
   -1.9173    2.1456    1.9602 H   0  0  0  0  0  0  0  0  0  0  0  0
   -1.3484    2.1424   -2.3294 H   0  0  0  0  0  0  0  0  0  0  0  0
   -0.0652    2.7375    0.0346 C   0  0  0  0  0  0  0  0  0  0  0  0
    0.6404    2.4371   -0.7502 H   0  0  0  0  0  0  0  0  0  0  0  0
    0.3818    2.4496    0.9930 H   0  0  0  0  0  0  0  0  0  0  0  0
   -0.8775    4.6811   -1.3493 C   0  0  0  0  0  0  0  0  0  0  0  0
   -0.1951    4.4144   -2.1683 H   0  0  0  0  0  0  0  0  0  0  0  0
   -1.0142    5.7710   -1.3882 H   0  0  0  0  0  0  0  0  0  0  0  0
   -1.2199    4.6823    1.1431 C   0  0  0  0  0  0  0  0  0  0  0  0
   -0.7809    4.4206    2.1161 H   0  0  0  0  0  0  0  0  0  0  0  0
   -1.3651    5.7720    1.1401 H   0  0  0  0  0  0  0  0  0  0  0  0
   -0.2693    4.2681    0.0043 C   0  0  1  0  0  0  0  0  0  0  0  0
    0.7036    4.7598    0.1373 H   0  0  0  0  0  0  0  0  0  0  0  0
   -3.8980   -0.3498    0.8831 H   0  0  0  0  0  0  0  0  0  0  0  0
   -4.7748   -2.7698    1.0108 H   0  0  0  0  0  0  0  0  0  0  0  0
   -2.2700   -2.3611    0.9500 H   0  0  0  0  0  0  0  0  0  0  0  0
   -2.5748   -1.0375   -2.2498 C   0  0  0  0  0  0  0  0  0  0  0  0
   -1.6149   -1.3979   -2.6365 H   0  0  0  0  0  0  0  0  0  0  0  0
   -2.7304   -0.0433   -2.6859 H   0  0  0  0  0  0  0  0  0  0  0  0
   -5.0622   -1.4568   -2.1962 C   0  0  0  0  0  0  0  0  0  0  0  0
   -5.2647   -0.4600   -2.6127 H   0  0  0  0  0  0  0  0  0  0  0  0
   -5.8767   -2.1147   -2.5312 H   0  0  0  0  0  0  0  0  0  0  0  0
   -3.4573   -3.3932   -2.1458 C   0  0  0  0  0  0  0  0  0  0  0  0
   -2.5055   -3.7890   -2.5262 H   0  0  0  0  0  0  0  0  0  0  0  0
   -4.2464   -4.0821   -2.4792 H   0  0  0  0  0  0  0  0  0  0  0  0
   -3.7080   -1.9814   -2.7093 C   0  0  2  0  0  0  0  0  0  0  0  0
   -3.7154   -2.0168   -3.8074 H   0  0  0  0  0  0  0  0  0  0  0  0
  2  1  1  0  0  0  0
  3  6  1  0  0  0  0
  4  2  2  0  0  0  0
  5  2  1  0  0  0  0
  5  8  1  0  0  0  0
  6  5  2  0  0  0  0
  7  3  2  0  0  0  0
  7  4  1  0  0  0  0
  9  7  1  1  0  0  0
 10 13  1  0  0  0  0
 10  3  1  0  0  0  0
 11 14  1  0  0  0  0
 12 10  2  0  0  0  0
 13 38  1  0  0  0  0
 14 16  1  0  0  0  0
 14 13  2  0  0  0  0
 15 11  2  0  0  0  0
 15 12  1  0  0  0  0
 17 15  1  0  0  0  0
 18 12  1  0  0  0  0
 18 24  1  0  0  0  0
 18 19  1  0  0  0  0
 20 22  1  0  0  0  0
 20 18  1  0  0  0  0
 21 20  1  0  0  0  0
 23 20  1  0  0  0  0
 24 25  1  0  0  0  0
 24 26  1  0  0  0  0
 27 24  1  0  0  0  0
 28 30  1  0  0  0  0
 28 11  1  0  0  0  0
 29 28  1  0  0  0  0
 30 31  1  0  0  0  0
 30 32  1  0  0  0  0
 33 30  1  0  0  0  0
 34 35  1  0  0  0  0
 34 28  1  0  0  0  0
 36 34  1  0  0  0  0
 37 34  1  0  0  0  0
 38 39  1  0  0  0  0
 38 44  1  0  0  0  0
 40 38  1  0  0  0  0
 40 43  1  0  0  0  0
 41 40  1  0  0  0  0
 42 40  1  0  0  0  0
 44 47  1  0  0  0  0
 44 45  1  0  0  0  0
 46 44  1  0  0  0  0
 48  4  1  0  0  0  0
 48 50  1  0  0  0  0
 49  6  1  0  0  0  0
 49 54  1  0  0  0  0
 50 53  1  0  0  0  0
 50 52  1  0  0  0  0
 51 50  1  0  0  0  0
 54 56  1  0  0  0  0
 54 57  1  0  0  0  0
 55 54  1  0  0  0  0
 58  9  1  1  0  0  0
 58 62  1  0  0  0  0
 58 63  1  0  0  0  0
 59 64  1  1  0  0  0
 59 63  1  0  0  0  0
 59 61  1  0  0  0  0
 60 65  1  1  0  0  0
 60 62  1  0  0  0  0
 60 61  1  0  0  0  0
 61 95  1  0  0  0  0
 62 94  1  0  0  0  0
 63 96  1  0  0  0  0
 66 61  1  0  0  0  0
 67 62  1  0  0  0  0
 68 63  1  0  0  0  0
 69  9  1  1  0  0  0
 69 83  1  0  0  0  0
 69 73  1  0  0  0  0
 70 78  1  6  0  0  0
 70 74  1  0  0  0  0
 70 86  1  0  0  0  0
 70 72  1  0  0  0  0
 71 73  1  0  0  0  0
 71 89  1  0  0  0  0
 71 79  1  1  0  0  0
 72 71  1  0  0  0  0
 73 81  1  0  0  0  0
 74 69  1  0  0  0  0
 75 72  1  0  0  0  0
 76 73  1  0  0  0  0
 77 74  1  0  0  0  0
 80 72  1  0  0  0  0
 82 74  1  0  0  0  0
 83 85  1  0  0  0  0
 84 83  1  0  0  0  0
 86 92  1  0  0  0  0
 87 86  1  0  0  0  0
 88 86  1  0  0  0  0
 89 90  1  0  0  0  0
 91 89  1  0  0  0  0
 92 83  1  0  0  0  0
 92 93  1  1  0  0  0
 92 89  1  0  0  0  0
 97 58  1  0  0  0  0
 98 97  1  0  0  0  0
 99 97  1  0  0  0  0
100 60  1  0  0  0  0
101100  1  0  0  0  0
102100  1  0  0  0  0
103 59  1  0  0  0  0
104103  1  0  0  0  0
105103  1  0  0  0  0
106107  1  6  0  0  0
106 97  1  0  0  0  0
106100  1  0  0  0  0
106103  1  0  0  0  0
M  END
$$$$
