XPhos
 OpenBabel07172113533D

 83 86  0  0  0  0  0  0  0  0999 V2000
   -2.1419   -0.9166    4.5352 H   0  0  0  0  0  0  0  0  0  0  0  0
   -1.3897   -0.8311    3.7552 C   0  0  0  0  0  0  0  0  0  0  0  0
    0.5348   -0.6034    1.7094 C   0  0  0  0  0  0  0  0  0  0  0  0
   -1.7721   -0.5239    2.4498 C   0  0  0  0  0  0  0  0  0  0  0  0
   -0.0420   -1.0307    4.0472 C   0  0  0  0  0  0  0  0  0  0  0  0
    0.9025   -0.9169    3.0290 C   0  0  0  0  0  0  0  0  0  0  0  0
   -0.8367   -0.4031    1.4065 C   0  0  0  0  0  0  0  0  0  0  0  0
   -2.8282   -0.3852    2.2411 H   0  0  0  0  0  0  0  0  0  0  0  0
    0.2739   -1.2782    5.0573 H   0  0  0  0  0  0  0  0  0  0  0  0
    1.9539   -1.0819    3.2491 H   0  0  0  0  0  0  0  0  0  0  0  0
   -1.3386   -0.0269   -0.3565 P   0  0  0  0  0  0  0  0  0  0  0  0
    1.6402   -0.5104    0.6881 C   0  0  0  0  0  0  0  0  0  0  0  0
    3.8138   -0.3871   -1.1245 C   0  0  0  0  0  0  0  0  0  0  0  0
    1.9728   -1.6363   -0.1002 C   0  0  0  0  0  0  0  0  0  0  0  0
    2.4070    0.6750    0.5747 C   0  0  0  0  0  0  0  0  0  0  0  0
    3.4732    0.7106   -0.3306 C   0  0  0  0  0  0  0  0  0  0  0  0
    3.0520   -1.5479   -0.9863 C   0  0  0  0  0  0  0  0  0  0  0  0
    4.0573    1.6232   -0.4157 H   0  0  0  0  0  0  0  0  0  0  0  0
    3.3120   -2.4134   -1.5914 H   0  0  0  0  0  0  0  0  0  0  0  0
    1.2196   -2.9601    0.0214 C   0  0  0  0  0  0  0  0  0  0  0  0
    0.2972   -2.7700    0.5779 H   0  0  0  0  0  0  0  0  0  0  0  0
    0.8110   -3.5452   -1.3427 C   0  0  0  0  0  0  0  0  0  0  0  0
    1.6798   -3.8615   -1.9315 H   0  0  0  0  0  0  0  0  0  0  0  0
    0.2506   -2.8132   -1.9333 H   0  0  0  0  0  0  0  0  0  0  0  0
    0.1781   -4.4292   -1.1987 H   0  0  0  0  0  0  0  0  0  0  0  0
    2.0381   -3.9837    0.8341 C   0  0  0  0  0  0  0  0  0  0  0  0
    2.9892   -4.2117    0.3377 H   0  0  0  0  0  0  0  0  0  0  0  0
    1.4825   -4.9230    0.9459 H   0  0  0  0  0  0  0  0  0  0  0  0
    2.2665   -3.6036    1.8359 H   0  0  0  0  0  0  0  0  0  0  0  0
    4.9704   -0.3286   -2.1140 C   0  0  0  0  0  0  0  0  0  0  0  0
    5.0432   -1.3199   -2.5823 H   0  0  0  0  0  0  0  0  0  0  0  0
    6.3158   -0.0489   -1.4187 C   0  0  0  0  0  0  0  0  0  0  0  0
    6.5245   -0.7955   -0.6446 H   0  0  0  0  0  0  0  0  0  0  0  0
    6.3205    0.9379   -0.9407 H   0  0  0  0  0  0  0  0  0  0  0  0
    7.1381   -0.0698   -2.1442 H   0  0  0  0  0  0  0  0  0  0  0  0
    4.7069    0.6917   -3.2379 C   0  0  0  0  0  0  0  0  0  0  0  0
    4.6344    1.7109   -2.8397 H   0  0  0  0  0  0  0  0  0  0  0  0
    3.7697    0.4709   -3.7602 H   0  0  0  0  0  0  0  0  0  0  0  0
    5.5208    0.6776   -3.9729 H   0  0  0  0  0  0  0  0  0  0  0  0
    2.1328    1.9066    1.4399 C   0  0  0  0  0  0  0  0  0  0  0  0
    1.1436    1.7848    1.8939 H   0  0  0  0  0  0  0  0  0  0  0  0
    2.1050    3.2176    0.6315 C   0  0  0  0  0  0  0  0  0  0  0  0
    1.7731    4.0468    1.2678 H   0  0  0  0  0  0  0  0  0  0  0  0
    1.4242    3.1489   -0.2234 H   0  0  0  0  0  0  0  0  0  0  0  0
    3.0961    3.4829    0.2459 H   0  0  0  0  0  0  0  0  0  0  0  0
    3.1531    2.0139    2.5917 C   0  0  0  0  0  0  0  0  0  0  0  0
    3.1337    1.1230    3.2277 H   0  0  0  0  0  0  0  0  0  0  0  0
    2.9367    2.8851    3.2222 H   0  0  0  0  0  0  0  0  0  0  0  0
    4.1722    2.1240    2.2018 H   0  0  0  0  0  0  0  0  0  0  0  0
   -1.6146    1.8562   -0.2274 C   0  0  0  0  0  0  0  0  0  0  0  0
   -1.5801    4.0584   -1.5163 C   0  0  0  0  0  0  0  0  0  0  0  0
   -2.9093    3.8762    0.6307 C   0  0  0  0  0  0  0  0  0  0  0  0
   -2.8291    4.5277   -0.7570 C   0  0  0  0  0  0  0  0  0  0  0  0
   -2.8596    2.3399    0.5391 C   0  0  0  0  0  0  0  0  0  0  0  0
   -1.5178    2.5245   -1.6171 C   0  0  0  0  0  0  0  0  0  0  0  0
   -0.6837    4.4222   -0.9926 H   0  0  0  0  0  0  0  0  0  0  0  0
   -2.0677    4.2285    1.2453 H   0  0  0  0  0  0  0  0  0  0  0  0
   -3.7269    4.2608   -1.3347 H   0  0  0  0  0  0  0  0  0  0  0  0
   -3.7696    1.9896    0.0318 H   0  0  0  0  0  0  0  0  0  0  0  0
   -2.3395    2.1774   -2.2582 H   0  0  0  0  0  0  0  0  0  0  0  0
   -0.7329    2.1818    0.3435 H   0  0  0  0  0  0  0  0  0  0  0  0
   -1.5546    4.4998   -2.5212 H   0  0  0  0  0  0  0  0  0  0  0  0
   -3.8257    4.1889    1.1484 H   0  0  0  0  0  0  0  0  0  0  0  0
   -2.8313    5.6215   -0.6653 H   0  0  0  0  0  0  0  0  0  0  0  0
   -2.8729    1.9108    1.5478 H   0  0  0  0  0  0  0  0  0  0  0  0
   -0.5903    2.2139   -2.1131 H   0  0  0  0  0  0  0  0  0  0  0  0
   -3.0792   -0.7685   -0.4492 C   0  0  0  0  0  0  0  0  0  0  0  0
   -5.1022   -1.1039   -1.9782 C   0  0  0  0  0  0  0  0  0  0  0  0
   -4.3934   -2.9621   -0.4182 C   0  0  0  0  0  0  0  0  0  0  0  0
   -5.0300   -2.6224   -1.7723 C   0  0  0  0  0  0  0  0  0  0  0  0
   -3.0140   -2.3005   -0.2588 C   0  0  0  0  0  0  0  0  0  0  0  0
   -3.7243   -0.4389   -1.8140 C   0  0  0  0  0  0  0  0  0  0  0  0
   -5.8008   -0.6722   -1.2459 H   0  0  0  0  0  0  0  0  0  0  0  0
   -5.0563   -2.6196    0.3905 H   0  0  0  0  0  0  0  0  0  0  0  0
   -4.4274   -3.0688   -2.5773 H   0  0  0  0  0  0  0  0  0  0  0  0
   -2.3253   -2.7236   -1.0046 H   0  0  0  0  0  0  0  0  0  0  0  0
   -3.0570   -0.7806   -2.6186 H   0  0  0  0  0  0  0  0  0  0  0  0
   -3.7253   -0.3504    0.3356 H   0  0  0  0  0  0  0  0  0  0  0  0
   -5.5088   -0.8707   -2.9709 H   0  0  0  0  0  0  0  0  0  0  0  0
   -4.2980   -4.0496   -0.3021 H   0  0  0  0  0  0  0  0  0  0  0  0
   -6.0310   -3.0663   -1.8475 H   0  0  0  0  0  0  0  0  0  0  0  0
   -2.5973   -2.5460    0.7243 H   0  0  0  0  0  0  0  0  0  0  0  0
   -3.8310    0.6444   -1.9386 H   0  0  0  0  0  0  0  0  0  0  0  0
  2  5  1  0  0  0  0
  2  1  1  0  0  0  0
  3  6  1  0  0  0  0
  4  2  2  0  0  0  0
  5  9  1  0  0  0  0
  6 10  1  0  0  0  0
  6  5  2  0  0  0  0
  7  3  2  0  0  0  0
  7  4  1  0  0  0  0
  8  4  1  0  0  0  0
 11 50  1  0  0  0  0
 11  7  1  0  0  0  0
 12  3  1  0  0  0  0
 13 17  2  0  0  0  0
 13 16  1  0  0  0  0
 14 20  1  0  0  0  0
 14 12  2  0  0  0  0
 15 12  1  0  0  0  0
 15 40  1  0  0  0  0
 16 15  2  0  0  0  0
 17 14  1  0  0  0  0
 18 16  1  0  0  0  0
 19 17  1  0  0  0  0
 20 21  1  0  0  0  0
 20 26  1  0  0  0  0
 22 25  1  0  0  0  0
 22 20  1  0  0  0  0
 23 22  1  0  0  0  0
 24 22  1  0  0  0  0
 26 28  1  0  0  0  0
 26 29  1  0  0  0  0
 27 26  1  0  0  0  0
 30 32  1  0  0  0  0
 30 13  1  0  0  0  0
 31 30  1  0  0  0  0
 32 34  1  0  0  0  0
 32 33  1  0  0  0  0
 35 32  1  0  0  0  0
 36 37  1  0  0  0  0
 36 30  1  0  0  0  0
 38 36  1  0  0  0  0
 39 36  1  0  0  0  0
 40 41  1  0  0  0  0
 40 46  1  0  0  0  0
 42 43  1  0  0  0  0
 42 40  1  0  0  0  0
 44 42  1  0  0  0  0
 45 42  1  0  0  0  0
 46 48  1  0  0  0  0
 46 47  1  0  0  0  0
 49 46  1  0  0  0  0
 50 61  1  0  0  0  0
 50 54  1  0  0  0  0
 51 56  1  0  0  0  0
 51 53  1  0  0  0  0
 52 63  1  0  0  0  0
 52 57  1  0  0  0  0
 53 64  1  0  0  0  0
 53 52  1  0  0  0  0
 54 52  1  0  0  0  0
 54 65  1  0  0  0  0
 55 51  1  0  0  0  0
 55 50  1  0  0  0  0
 58 53  1  0  0  0  0
 59 54  1  0  0  0  0
 60 55  1  0  0  0  0
 62 51  1  0  0  0  0
 66 55  1  0  0  0  0
 67 11  1  0  0  0  0
 67 71  1  0  0  0  0
 67 78  1  0  0  0  0
 68 72  1  0  0  0  0
 68 70  1  0  0  0  0
 68 73  1  0  0  0  0
 69 80  1  0  0  0  0
 69 71  1  0  0  0  0
 69 74  1  0  0  0  0
 70 69  1  0  0  0  0
 71 82  1  0  0  0  0
 72 67  1  0  0  0  0
 75 70  1  0  0  0  0
 76 71  1  0  0  0  0
 77 72  1  0  0  0  0
 79 68  1  0  0  0  0
 81 70  1  0  0  0  0
 83 72  1  0  0  0  0
M  END
$$$$
