AmPhos
 OpenBabel07172116153D

 46 46  0  0  0  0  0  0  0  0999 V2000
   -3.6164   -1.9138    0.2266 C   0  0  0  0  0  0  0  0  0  0  0  0
   -2.2922   -1.3876   -0.3610 C   0  0  0  0  0  0  0  0  0  0  0  0
   -2.5867   -0.7079   -1.7034 C   0  0  0  0  0  0  0  0  0  0  0  0
   -1.3679   -2.5950   -0.5968 C   0  0  0  0  0  0  0  0  0  0  0  0
   -1.4686   -0.3560    1.0261 P   0  0  0  0  0  0  0  0  0  0  0  0
    0.2958   -0.2082    0.5189 C   0  0  0  0  0  0  0  0  0  0  0  0
    1.2573   -0.4880    1.4986 C   0  0  0  0  0  0  0  0  0  0  0  0
    2.6207   -0.4158    1.2463 C   0  0  0  0  0  0  0  0  0  0  0  0
    3.1033   -0.0553   -0.0282 C   0  0  0  0  0  0  0  0  0  0  0  0
    2.1397    0.2045   -1.0274 C   0  0  0  0  0  0  0  0  0  0  0  0
    0.7831    0.1375   -0.7496 C   0  0  0  0  0  0  0  0  0  0  0  0
    4.4588    0.0448   -0.2896 N   0  0  0  0  0  0  0  0  0  0  0  0
    4.9091    0.1801   -1.6621 C   0  0  0  0  0  0  0  0  0  0  0  0
    5.4070   -0.4471    0.6918 C   0  0  0  0  0  0  0  0  0  0  0  0
   -2.0696    1.4571    0.9448 C   0  0  0  0  0  0  0  0  0  0  0  0
   -1.4349    2.1121    2.1862 C   0  0  0  0  0  0  0  0  0  0  0  0
   -3.5964    1.4799    1.1063 C   0  0  0  0  0  0  0  0  0  0  0  0
   -1.6632    2.2760   -0.2868 C   0  0  0  0  0  0  0  0  0  0  0  0
   -4.0918   -2.5987   -0.4845 H   0  0  0  0  0  0  0  0  0  0  0  0
   -4.3264   -1.1119    0.4344 H   0  0  0  0  0  0  0  0  0  0  0  0
   -3.4480   -2.4579    1.1583 H   0  0  0  0  0  0  0  0  0  0  0  0
   -3.2925    0.1173   -1.6020 H   0  0  0  0  0  0  0  0  0  0  0  0
   -3.0381   -1.4348   -2.3892 H   0  0  0  0  0  0  0  0  0  0  0  0
   -1.6868   -0.3284   -2.1879 H   0  0  0  0  0  0  0  0  0  0  0  0
   -0.4403   -2.3116   -1.0951 H   0  0  0  0  0  0  0  0  0  0  0  0
   -1.8799   -3.3326   -1.2245 H   0  0  0  0  0  0  0  0  0  0  0  0
   -1.1022   -3.0869    0.3431 H   0  0  0  0  0  0  0  0  0  0  0  0
    0.9259   -0.7809    2.4899 H   0  0  0  0  0  0  0  0  0  0  0  0
    3.3077   -0.6509    2.0481 H   0  0  0  0  0  0  0  0  0  0  0  0
    2.4474    0.4642   -2.0315 H   0  0  0  0  0  0  0  0  0  0  0  0
    0.0934    0.3562   -1.5538 H   0  0  0  0  0  0  0  0  0  0  0  0
    5.9950    0.2578   -1.6759 H   0  0  0  0  0  0  0  0  0  0  0  0
    4.5113    1.0903   -2.1187 H   0  0  0  0  0  0  0  0  0  0  0  0
    4.6169   -0.6723   -2.2922 H   0  0  0  0  0  0  0  0  0  0  0  0
    5.2970   -1.5232    0.8885 H   0  0  0  0  0  0  0  0  0  0  0  0
    5.2985    0.0829    1.6418 H   0  0  0  0  0  0  0  0  0  0  0  0
    6.4191   -0.2671    0.3330 H   0  0  0  0  0  0  0  0  0  0  0  0
   -1.7509    3.1588    2.2577 H   0  0  0  0  0  0  0  0  0  0  0  0
   -0.3436    2.0974    2.1331 H   0  0  0  0  0  0  0  0  0  0  0  0
   -1.7345    1.6045    3.1060 H   0  0  0  0  0  0  0  0  0  0  0  0
   -4.1112    1.1161    0.2153 H   0  0  0  0  0  0  0  0  0  0  0  0
   -3.9359    2.5068    1.2809 H   0  0  0  0  0  0  0  0  0  0  0  0
   -3.9215    0.8747    1.9567 H   0  0  0  0  0  0  0  0  0  0  0  0
   -2.0480    3.2981   -0.1883 H   0  0  0  0  0  0  0  0  0  0  0  0
   -2.0602    1.8689   -1.2162 H   0  0  0  0  0  0  0  0  0  0  0  0
   -0.5789    2.3454   -0.3807 H   0  0  0  0  0  0  0  0  0  0  0  0
  1 20  1  0  0  0  0
  1 21  1  0  0  0  0
  2  1  1  0  0  0  0
  2  5  1  0  0  0  0
  3 22  1  0  0  0  0
  3  2  1  0  0  0  0
  4  2  1  0  0  0  0
  4 27  1  0  0  0  0
  6  5  1  0  0  0  0
  6  7  1  0  0  0  0
  7 28  1  0  0  0  0
  8  7  2  0  0  0  0
  8 29  1  0  0  0  0
  9  8  1  0  0  0  0
 10 11  1  0  0  0  0
 10  9  2  0  0  0  0
 11  6  2  0  0  0  0
 12  9  1  0  0  0  0
 12 14  1  0  0  0  0
 13 12  1  0  0  0  0
 14 35  1  0  0  0  0
 14 36  1  0  0  0  0
 15  5  1  0  0  0  0
 15 17  1  0  0  0  0
 15 16  1  0  0  0  0
 16 38  1  0  0  0  0
 16 40  1  0  0  0  0
 17 42  1  0  0  0  0
 17 43  1  0  0  0  0
 18 44  1  0  0  0  0
 18 15  1  0  0  0  0
 19  1  1  0  0  0  0
 23  3  1  0  0  0  0
 24  3  1  0  0  0  0
 25  4  1  0  0  0  0
 26  4  1  0  0  0  0
 30 10  1  0  0  0  0
 31 11  1  0  0  0  0
 32 13  1  0  0  0  0
 33 13  1  0  0  0  0
 34 13  1  0  0  0  0
 37 14  1  0  0  0  0
 39 16  1  0  0  0  0
 41 17  1  0  0  0  0
 45 18  1  0  0  0  0
 46 18  1  0  0  0  0
M  END
$$$$
