CataCXiumA
 OpenBabel07172116153D

 64 69  0  0  1  0  0  0  0  0999 V2000
    0.5644    4.8199    1.2331 C   0  0  0  0  0  0  0  0  0  0  0  0
   -0.7732    4.0786    1.3153 C   0  0  0  0  0  0  0  0  0  0  0  0
   -0.6995    2.5747    0.9917 C   0  0  0  0  0  0  0  0  0  0  0  0
   -0.3721    2.2858   -0.4849 C   0  0  0  0  0  0  0  0  0  0  0  0
   -0.1754    0.5622   -1.2373 P   0  0  1  0  0  0  0  0  0  0  0  0
    1.5405   -0.0273   -0.6007 C   0  0  1  0  0  0  0  0  0  0  0  0
    1.7173   -1.5347   -0.9142 C   0  0  0  0  0  0  0  0  0  0  0  0
    3.1601   -1.9988   -0.6238 C   0  0  1  0  0  0  0  0  0  0  0  0
    4.1490   -1.2028   -1.4938 C   0  0  0  0  0  0  0  0  0  0  0  0
    4.0133    0.2963   -1.1714 C   0  0  1  0  0  0  0  0  0  0  0  0
    2.5705    0.7534   -1.4700 C   0  0  0  0  0  0  0  0  0  0  0  0
    4.3351    0.5335    0.3154 C   0  0  0  0  0  0  0  0  0  0  0  0
    3.3440   -0.2631    1.1834 C   0  0  2  0  0  0  0  0  0  0  0  0
    3.4772   -1.7636    0.8647 C   0  0  0  0  0  0  0  0  0  0  0  0
    1.9027    0.2120    0.8850 C   0  0  0  0  0  0  0  0  0  0  0  0
   -1.6061   -0.4919   -0.5175 C   0  0  1  0  0  0  0  0  0  0  0  0
   -2.9055    0.3277   -0.7642 C   0  0  0  0  0  0  0  0  0  0  0  0
   -4.1560   -0.4815   -0.3639 C   0  0  1  0  0  0  0  0  0  0  0  0
   -4.2391   -1.7612   -1.2138 C   0  0  0  0  0  0  0  0  0  0  0  0
   -2.9736   -2.6035   -0.9776 C   0  0  1  0  0  0  0  0  0  0  0  0
   -1.7274   -1.7854   -1.3766 C   0  0  0  0  0  0  0  0  0  0  0  0
   -2.8842   -2.9900    0.5110 C   0  0  0  0  0  0  0  0  0  0  0  0
   -2.8052   -1.7122    1.3663 C   0  0  2  0  0  0  0  0  0  0  0  0
   -4.0640   -0.8573    1.1276 C   0  0  0  0  0  0  0  0  0  0  0  0
   -1.5471   -0.9055    0.9733 C   0  0  0  0  0  0  0  0  0  0  0  0
    0.9785    4.8154    0.2214 H   0  0  0  0  0  0  0  0  0  0  0  0
    1.3092    4.3684    1.8969 H   0  0  0  0  0  0  0  0  0  0  0  0
    0.4535    5.8665    1.5303 H   0  0  0  0  0  0  0  0  0  0  0  0
   -1.4993    4.5581    0.6466 H   0  0  0  0  0  0  0  0  0  0  0  0
   -1.1787    4.1931    2.3277 H   0  0  0  0  0  0  0  0  0  0  0  0
   -1.6633    2.1291    1.2487 H   0  0  0  0  0  0  0  0  0  0  0  0
    0.0316    2.1041    1.6537 H   0  0  0  0  0  0  0  0  0  0  0  0
   -1.1366    2.7635   -1.1078 H   0  0  0  0  0  0  0  0  0  0  0  0
    0.5581    2.7904   -0.7651 H   0  0  0  0  0  0  0  0  0  0  0  0
    1.0287   -2.1285   -0.3065 H   0  0  0  0  0  0  0  0  0  0  0  0
    1.4655   -1.7312   -1.9627 H   0  0  0  0  0  0  0  0  0  0  0  0
    3.2413   -3.0676   -0.8549 H   0  0  0  0  0  0  0  0  0  0  0  0
    3.9468   -1.3810   -2.5567 H   0  0  0  0  0  0  0  0  0  0  0  0
    5.1757   -1.5406   -1.3072 H   0  0  0  0  0  0  0  0  0  0  0  0
    4.7045    0.8735   -1.7970 H   0  0  0  0  0  0  0  0  0  0  0  0
    2.3449    0.6057   -2.5312 H   0  0  0  0  0  0  0  0  0  0  0  0
    2.4875    1.8299   -1.2817 H   0  0  0  0  0  0  0  0  0  0  0  0
    5.3647    0.2252    0.5346 H   0  0  0  0  0  0  0  0  0  0  0  0
    4.2704    1.6027    0.5511 H   0  0  0  0  0  0  0  0  0  0  0  0
    3.5605   -0.0902    2.2445 H   0  0  0  0  0  0  0  0  0  0  0  0
    4.4910   -2.1114    1.0971 H   0  0  0  0  0  0  0  0  0  0  0  0
    2.7937   -2.3470    1.4939 H   0  0  0  0  0  0  0  0  0  0  0  0
    1.8304    1.2772    1.1188 H   0  0  0  0  0  0  0  0  0  0  0  0
    1.2018   -0.3065    1.5454 H   0  0  0  0  0  0  0  0  0  0  0  0
   -2.9672    0.6087   -1.8225 H   0  0  0  0  0  0  0  0  0  0  0  0
   -2.8904    1.2595   -0.1940 H   0  0  0  0  0  0  0  0  0  0  0  0
   -5.0462    0.1357   -0.5347 H   0  0  0  0  0  0  0  0  0  0  0  0
   -4.3296   -1.5045   -2.2761 H   0  0  0  0  0  0  0  0  0  0  0  0
   -5.1354   -2.3364   -0.9510 H   0  0  0  0  0  0  0  0  0  0  0  0
   -3.0126   -3.5104   -1.5927 H   0  0  0  0  0  0  0  0  0  0  0  0
   -1.7802   -1.5151   -2.4367 H   0  0  0  0  0  0  0  0  0  0  0  0
   -0.8380   -2.4093   -1.2611 H   0  0  0  0  0  0  0  0  0  0  0  0
   -2.0020   -3.6178    0.6870 H   0  0  0  0  0  0  0  0  0  0  0  0
   -3.7570   -3.5879    0.8004 H   0  0  0  0  0  0  0  0  0  0  0  0
   -2.7376   -1.9811    2.4273 H   0  0  0  0  0  0  0  0  0  0  0  0
   -4.0281    0.0491    1.7444 H   0  0  0  0  0  0  0  0  0  0  0  0
   -4.9604   -1.4095    1.4348 H   0  0  0  0  0  0  0  0  0  0  0  0
   -1.4627   -0.0279    1.6190 H   0  0  0  0  0  0  0  0  0  0  0  0
   -0.6587   -1.5171    1.1591 H   0  0  0  0  0  0  0  0  0  0  0  0
  1  2  1  0  0  0  0
  1 28  1  0  0  0  0
  1 27  1  0  0  0  0
  2 30  1  0  0  0  0
  3 31  1  0  0  0  0
  3  2  1  0  0  0  0
  3 32  1  0  0  0  0
  4  3  1  0  0  0  0
  5  4  1  1  0  0  0
  6  5  1  6  0  0  0
  6 15  1  0  0  0  0
  7  8  1  0  0  0  0
  7  6  1  0  0  0  0
  7 35  1  0  0  0  0
  8 37  1  6  0  0  0
  8 14  1  0  0  0  0
  9 39  1  0  0  0  0
  9 10  1  0  0  0  0
  9  8  1  0  0  0  0
 10 40  1  6  0  0  0
 10 12  1  0  0  0  0
 11 42  1  0  0  0  0
 11 10  1  0  0  0  0
 11  6  1  0  0  0  0
 12 43  1  0  0  0  0
 12 44  1  0  0  0  0
 12 13  1  0  0  0  0
 13 45  1  1  0  0  0
 14 46  1  0  0  0  0
 14 13  1  0  0  0  0
 14 47  1  0  0  0  0
 15 48  1  0  0  0  0
 15 13  1  0  0  0  0
 15 49  1  0  0  0  0
 16  5  1  6  0  0  0
 16 25  1  0  0  0  0
 17 16  1  0  0  0  0
 17 18  1  0  0  0  0
 17 51  1  0  0  0  0
 18 52  1  6  0  0  0
 18 24  1  0  0  0  0
 19 20  1  0  0  0  0
 19 54  1  0  0  0  0
 19 18  1  0  0  0  0
 20 55  1  6  0  0  0
 20 22  1  0  0  0  0
 21 57  1  0  0  0  0
 21 20  1  0  0  0  0
 21 16  1  0  0  0  0
 22 58  1  0  0  0  0
 22 59  1  0  0  0  0
 22 23  1  0  0  0  0
 23 60  1  1  0  0  0
 24 23  1  0  0  0  0
 24 62  1  0  0  0  0
 24 61  1  0  0  0  0
 25 64  1  0  0  0  0
 25 23  1  0  0  0  0
 25 63  1  0  0  0  0
 26  1  1  0  0  0  0
 29  2  1  0  0  0  0
 33  4  1  0  0  0  0
 34  4  1  0  0  0  0
 36  7  1  0  0  0  0
 38  9  1  0  0  0  0
 41 11  1  0  0  0  0
 50 17  1  0  0  0  0
 53 19  1  0  0  0  0
 56 21  1  0  0  0  0
M  END
$$$$
