dppf
 OpenBabel07172116153D

 65 72  0  0  1  0  0  0  0  0999 V2000
    4.3082    9.2095    0.0000 Fe  0  0  1  0  0  0  0  0  0  0  0  0
    4.6695    6.7176    2.4380 P   0  0  0  0  0  0  0  0  0  0  0  0
    3.7824    9.5247    1.9869 C   0  0  2  0  0  0  0  0  0  0  0  0
    2.7744    9.4239    2.3598 H   0  0  0  0  0  0  0  0  0  0  0  0
    4.3595   10.7076    1.4450 C   0  0  0  0  0  0  0  0  0  0  0  0
    3.8610   11.6597    1.3303 H   0  0  0  0  0  0  0  0  0  0  0  0
    5.6854   10.3989    1.0194 C   0  0  0  0  0  0  0  0  0  0  0  0
    6.3698   11.0719    0.5247 H   0  0  0  0  0  0  0  0  0  0  0  0
    5.9221    9.0229    1.2871 C   0  0  1  0  0  0  0  0  0  0  0  0
    6.8220    8.4747    1.0473 H   0  0  0  0  0  0  0  0  0  0  0  0
    4.7479    8.4670    1.8988 C   0  0  1  0  0  3  0  0  0  0  0  0
    5.6328    8.0360    4.8211 C   0  0  0  0  0  0  0  0  0  0  0  0
    5.5019    8.9798    4.3039 H   0  0  0  0  0  0  0  0  0  0  0  0
    6.1433    8.0301    6.1194 C   0  0  0  0  0  0  0  0  0  0  0  0
    6.4026    8.9696    6.5980 H   0  0  0  0  0  0  0  0  0  0  0  0
    6.3192    6.8286    6.8004 C   0  0  0  0  0  0  0  0  0  0  0  0
    6.7164    6.8261    7.8105 H   0  0  0  0  0  0  0  0  0  0  0  0
    5.9889    5.6273    6.1737 C   0  0  0  0  0  0  0  0  0  0  0  0
    6.1292    4.6848    6.6939 H   0  0  0  0  0  0  0  0  0  0  0  0
    5.4906    5.6324    4.8747 C   0  0  0  0  0  0  0  0  0  0  0  0
    5.2530    4.6894    4.3900 H   0  0  0  0  0  0  0  0  0  0  0  0
    5.2940    6.8370    4.1832 C   0  0  0  0  0  0  0  0  0  0  0  0
    2.8516    6.4584    2.7242 C   0  0  0  0  0  0  0  0  0  0  0  0
    2.1417    7.0127    3.7975 C   0  0  0  0  0  0  0  0  0  0  0  0
    2.6588    7.6313    4.5234 H   0  0  0  0  0  0  0  0  0  0  0  0
    0.7800    6.7632    3.9525 C   0  0  0  0  0  0  0  0  0  0  0  0
    0.2445    7.1992    4.7903 H   0  0  0  0  0  0  0  0  0  0  0  0
    0.1068    5.9510    3.0407 C   0  0  0  0  0  0  0  0  0  0  0  0
   -0.9533    5.7540    3.1657 H   0  0  0  0  0  0  0  0  0  0  0  0
    0.8035    5.3818    1.9775 C   0  0  0  0  0  0  0  0  0  0  0  0
    0.2898    4.7354    1.2727 H   0  0  0  0  0  0  0  0  0  0  0  0
    2.1670    5.6302    1.8258 C   0  0  0  0  0  0  0  0  0  0  0  0
    2.7109    5.1666    1.0082 H   0  0  0  0  0  0  0  0  0  0  0  0
    3.9469   11.7014   -2.4380 P   0  0  0  0  0  0  0  0  0  0  0  0
    4.8340    8.8943   -1.9869 C   0  0  1  0  0  0  0  0  0  0  0  0
    5.8420    8.9951   -2.3598 H   0  0  0  0  0  0  0  0  0  0  0  0
    4.2569    7.7114   -1.4450 C   0  0  0  0  0  0  0  0  0  0  0  0
    4.7554    6.7593   -1.3303 H   0  0  0  0  0  0  0  0  0  0  0  0
    2.9310    8.0201   -1.0194 C   0  0  0  0  0  0  0  0  0  0  0  0
    2.2466    7.3471   -0.5247 H   0  0  0  0  0  0  0  0  0  0  0  0
    2.6943    9.3961   -1.2871 C   0  0  2  0  0  0  0  0  0  0  0  0
    1.7944    9.9443   -1.0473 H   0  0  0  0  0  0  0  0  0  0  0  0
    3.8685    9.9520   -1.8988 C   0  0  2  0  0  3  0  0  0  0  0  0
    2.9836   10.3830   -4.8211 C   0  0  0  0  0  0  0  0  0  0  0  0
    3.1145    9.4392   -4.3039 H   0  0  0  0  0  0  0  0  0  0  0  0
    2.4731   10.3889   -6.1194 C   0  0  0  0  0  0  0  0  0  0  0  0
    2.2138    9.4494   -6.5980 H   0  0  0  0  0  0  0  0  0  0  0  0
    2.2972   11.5904   -6.8004 C   0  0  0  0  0  0  0  0  0  0  0  0
    1.9000   11.5929   -7.8105 H   0  0  0  0  0  0  0  0  0  0  0  0
    2.6275   12.7917   -6.1737 C   0  0  0  0  0  0  0  0  0  0  0  0
    2.4872   13.7342   -6.6939 H   0  0  0  0  0  0  0  0  0  0  0  0
    3.1258   12.7866   -4.8747 C   0  0  0  0  0  0  0  0  0  0  0  0
    3.3634   13.7296   -4.3900 H   0  0  0  0  0  0  0  0  0  0  0  0
    3.3224   11.5820   -4.1832 C   0  0  0  0  0  0  0  0  0  0  0  0
    5.7648   11.9606   -2.7242 C   0  0  0  0  0  0  0  0  0  0  0  0
    6.4747   11.4063   -3.7975 C   0  0  0  0  0  0  0  0  0  0  0  0
    5.9576   10.7877   -4.5234 H   0  0  0  0  0  0  0  0  0  0  0  0
    7.8364   11.6558   -3.9525 C   0  0  0  0  0  0  0  0  0  0  0  0
    8.3719   11.2198   -4.7903 H   0  0  0  0  0  0  0  0  0  0  0  0
    8.5096   12.4680   -3.0407 C   0  0  0  0  0  0  0  0  0  0  0  0
    9.5697   12.6650   -3.1657 H   0  0  0  0  0  0  0  0  0  0  0  0
    7.8129   13.0372   -1.9775 C   0  0  0  0  0  0  0  0  0  0  0  0
    8.3266   13.6836   -1.2727 H   0  0  0  0  0  0  0  0  0  0  0  0
    6.4494   12.7888   -1.8258 C   0  0  0  0  0  0  0  0  0  0  0  0
    5.9055   13.2524   -1.0082 H   0  0  0  0  0  0  0  0  0  0  0  0
  1  9  1  0  0  0  0
  1  3  1  0  0  0  0
  2 23  1  0  0  0  0
  2 22  1  0  0  0  0
  3  4  1  1  0  0  0
  5  3  1  0  0  0  0
  6  5  1  0  0  0  0
  7  9  1  0  0  0  0
  7  5  2  0  0  0  0
  8  7  1  0  0  0  0
  9 10  1  6  0  0  0
  9 11  1  0  0  0  0
 11  3  1  0  0  0  0
 11  2  1  0  0  0  0
 12 14  1  0  0  0  0
 13 12  1  0  0  0  0
 14 15  1  0  0  0  0
 14 16  2  0  0  0  0
 16 17  1  0  0  0  0
 18 19  1  0  0  0  0
 18 16  1  0  0  0  0
 20 18  2  0  0  0  0
 21 20  1  0  0  0  0
 22 12  2  0  0  0  0
 22 20  1  0  0  0  0
 23 24  1  0  0  0  0
 24 26  2  0  0  0  0
 24 25  1  0  0  0  0
 26 27  1  0  0  0  0
 28 29  1  0  0  0  0
 28 26  1  0  0  0  0
 30 28  2  0  0  0  0
 31 30  1  0  0  0  0
 32 30  1  0  0  0  0
 32 23  2  0  0  0  0
 33 32  1  0  0  0  0
 34 43  1  0  0  0  0
 35 36  1  6  0  0  0
 35 43  1  0  0  0  0
 35 37  1  0  0  0  0
 35  1  1  0  0  0  0
 37 38  1  0  0  0  0
 37 39  2  0  0  0  0
 39 40  1  0  0  0  0
 41 42  1  1  0  0  0
 41 39  1  0  0  0  0
 41  1  1  0  0  0  0
 43 41  1  0  0  0  0
 44 45  1  0  0  0  0
 44 54  1  0  0  0  0
 46 44  2  0  0  0  0
 47 46  1  0  0  0  0
 48 50  2  0  0  0  0
 48 46  1  0  0  0  0
 49 48  1  0  0  0  0
 50 52  1  0  0  0  0
 51 50  1  0  0  0  0
 52 53  1  0  0  0  0
 52 54  2  0  0  0  0
 54 34  1  0  0  0  0
 55 34  1  0  0  0  0
 55 64  1  0  0  0  0
 56 55  2  0  0  0  0
 57 56  1  0  0  0  0
 58 56  1  0  0  0  0
 58 60  2  0  0  0  0
 59 58  1  0  0  0  0
 60 62  1  0  0  0  0
 61 60  1  0  0  0  0
 62 64  2  0  0  0  0
 62 63  1  0  0  0  0
 64 65  1  0  0  0  0
M  END
$$$$
