dtbpf
 OpenBabel07172116153D

 73 74  0  0  1  0  0  0  0  0999 V2000
    3.8915    9.4963    0.1061 Fe  0  0  0  0  0  0  0  0  0  0  0  0
    4.3873    6.6905    2.3734 P   0  0  0  0  0  0  0  0  0  0  0  0
    3.5529    9.5969    2.1736 C   0  0  0  0  0  0  0  0  0  0  0  0
    2.5801    9.5533    2.6378 H   0  0  0  0  0  0  0  0  0  0  0  0
    4.1806   10.7909    1.7188 C   0  0  0  0  0  0  0  0  0  0  0  0
    3.7621   11.7860    1.7715 H   0  0  0  0  0  0  0  0  0  0  0  0
    5.4353   10.4329    1.1493 C   0  0  0  0  0  0  0  0  0  0  0  0
    6.1526   11.1055    0.7081 H   0  0  0  0  0  0  0  0  0  0  0  0
    5.5630    9.0202    1.2270 C   0  0  1  0  0  0  0  0  0  0  0  0
    6.3833    8.4413    0.8304 H   0  0  0  0  0  0  0  0  0  0  0  0
    4.4102    8.4791    1.8977 C   0  0  0  0  0  0  0  0  0  0  0  0
    3.9660   11.8628   -2.8077 P   0  0  0  0  0  0  0  0  0  0  0  0
    4.2084    8.9831   -1.8929 C   0  0  0  0  0  3  0  0  0  0  0  0
    5.1672    8.7119   -2.3066 H   0  0  0  0  0  0  0  0  0  0  0  0
    3.2973    8.0744   -1.2860 C   0  0  2  0  0  0  0  0  0  0  0  0
    3.4646    7.0168   -1.1393 H   0  0  0  0  0  0  0  0  0  0  0  0
    2.1645    8.8186   -0.8454 C   0  0  0  0  0  0  0  0  0  0  0  0
    1.3038    8.4246   -0.3285 H   0  0  0  0  0  0  0  0  0  0  0  0
    2.3833   10.1801   -1.1785 C   0  0  0  0  0  0  0  0  0  0  0  0
    1.7142   11.0024   -0.9693 H   0  0  0  0  0  0  0  0  0  0  0  0
    3.6432   10.3067   -1.8558 C   0  0  2  0  0  3  0  0  0  0  0  0
    3.6609   11.2180   -4.6058 C   0  0  0  0  0  0  0  0  0  0  0  0
    3.5293   12.4494   -5.5258 C   0  0  0  0  0  0  0  0  0  0  0  0
    4.7034   10.2474   -5.1801 C   0  0  0  0  0  0  0  0  0  0  0  0
    2.2880   10.5150   -4.5842 C   0  0  0  0  0  0  0  0  0  0  0  0
    2.7801   13.1500   -5.1481 H   0  0  0  0  0  0  0  0  0  0  0  0
    4.4655   12.9943   -5.6457 H   0  0  0  0  0  0  0  0  0  0  0  0
    3.2104   12.1287   -6.5243 H   0  0  0  0  0  0  0  0  0  0  0  0
    4.8128    9.3546   -4.5618 H   0  0  0  0  0  0  0  0  0  0  0  0
    4.3896    9.9131   -6.1768 H   0  0  0  0  0  0  0  0  0  0  0  0
    5.6866   10.7073   -5.2937 H   0  0  0  0  0  0  0  0  0  0  0  0
    1.9807   10.2904   -5.6119 H   0  0  0  0  0  0  0  0  0  0  0  0
    2.3105    9.5752   -4.0315 H   0  0  0  0  0  0  0  0  0  0  0  0
    1.5138   11.1478   -4.1409 H   0  0  0  0  0  0  0  0  0  0  0  0
    5.8229   12.3067   -2.5710 C   0  0  0  0  0  0  0  0  0  0  0  0
    5.8280   13.1644   -1.2867 C   0  0  0  0  0  0  0  0  0  0  0  0
    6.7889   11.1234   -2.4076 C   0  0  0  0  0  0  0  0  0  0  0  0
    6.3128   13.2064   -3.7195 C   0  0  0  0  0  0  0  0  0  0  0  0
    5.2970   14.1067   -1.4410 H   0  0  0  0  0  0  0  0  0  0  0  0
    5.3472   12.6554   -0.4513 H   0  0  0  0  0  0  0  0  0  0  0  0
    6.8576   13.4017   -0.9933 H   0  0  0  0  0  0  0  0  0  0  0  0
    6.8171   10.4887   -3.2950 H   0  0  0  0  0  0  0  0  0  0  0  0
    7.8079   11.4948   -2.2418 H   0  0  0  0  0  0  0  0  0  0  0  0
    6.5235   10.4993   -1.5545 H   0  0  0  0  0  0  0  0  0  0  0  0
    7.2868   13.6329   -3.4531 H   0  0  0  0  0  0  0  0  0  0  0  0
    6.4465   12.6614   -4.6551 H   0  0  0  0  0  0  0  0  0  0  0  0
    5.6337   14.0430   -3.9037 H   0  0  0  0  0  0  0  0  0  0  0  0
    5.5931    6.7539    3.8981 C   0  0  0  0  0  0  0  0  0  0  0  0
    5.4314    7.9750    4.8169 C   0  0  0  0  0  0  0  0  0  0  0  0
    5.4639    5.4585    4.7182 C   0  0  0  0  0  0  0  0  0  0  0  0
    7.0176    6.7740    3.3042 C   0  0  0  0  0  0  0  0  0  0  0  0
    5.5667    8.9104    4.2717 H   0  0  0  0  0  0  0  0  0  0  0  0
    4.4567    8.0114    5.3036 H   0  0  0  0  0  0  0  0  0  0  0  0
    6.1902    7.9441    5.6086 H   0  0  0  0  0  0  0  0  0  0  0  0
    5.5479    4.5669    4.0906 H   0  0  0  0  0  0  0  0  0  0  0  0
    6.2742    5.4138    5.4547 H   0  0  0  0  0  0  0  0  0  0  0  0
    4.5267    5.3997    5.2727 H   0  0  0  0  0  0  0  0  0  0  0  0
    7.7516    6.7013    4.1151 H   0  0  0  0  0  0  0  0  0  0  0  0
    7.1867    5.9349    2.6245 H   0  0  0  0  0  0  0  0  0  0  0  0
    7.2279    7.6982    2.7649 H   0  0  0  0  0  0  0  0  0  0  0  0
    2.6107    6.2965    3.0111 C   0  0  0  0  0  0  0  0  0  0  0  0
    2.1589    6.9538    4.3254 C   0  0  0  0  0  0  0  0  0  0  0  0
    1.6290    6.6936    1.8941 C   0  0  0  0  0  0  0  0  0  0  0  0
    2.5236    4.7608    3.1512 C   0  0  0  0  0  0  0  0  0  0  0  0
    2.7338    6.6057    5.1845 H   0  0  0  0  0  0  0  0  0  0  0  0
    2.2287    8.0425    4.2976 H   0  0  0  0  0  0  0  0  0  0  0  0
    1.1098    6.6997    4.5207 H   0  0  0  0  0  0  0  0  0  0  0  0
    1.9173    6.2630    0.9319 H   0  0  0  0  0  0  0  0  0  0  0  0
    0.6299    6.3145    2.1375 H   0  0  0  0  0  0  0  0  0  0  0  0
    1.5556    7.7722    1.7716 H   0  0  0  0  0  0  0  0  0  0  0  0
    1.4944    4.4750    3.3969 H   0  0  0  0  0  0  0  0  0  0  0  0
    2.7934    4.2607    2.2178 H   0  0  0  0  0  0  0  0  0  0  0  0
    3.1656    4.3650    3.9372 H   0  0  0  0  0  0  0  0  0  0  0  0
  1  9  1  0  0  0  0
  2 61  1  0  0  0  0
  2 48  1  0  0  0  0
  3  4  1  0  0  0  0
  5  6  1  0  0  0  0
  5  3  1  0  0  0  0
  7  9  1  0  0  0  0
  7  5  2  0  0  0  0
  8  7  1  0  0  0  0
  9 10  1  6  0  0  0
  9 11  1  0  0  0  0
 11  3  2  0  0  0  0
 11  2  1  0  0  0  0
 12 35  1  0  0  0  0
 13 21  1  0  0  0  0
 13 15  1  0  0  0  0
 14 13  1  0  0  0  0
 15 16  1  1  0  0  0
 15 17  1  0  0  0  0
 15  1  1  0  0  0  0
 17 18  1  0  0  0  0
 19 20  1  0  0  0  0
 19 17  2  0  0  0  0
 21 12  1  6  0  0  0
 21 19  1  0  0  0  0
 22 25  1  0  0  0  0
 22 12  1  0  0  0  0
 23 26  1  0  0  0  0
 23 22  1  0  0  0  0
 24 22  1  0  0  0  0
 24 29  1  0  0  0  0
 25 34  1  0  0  0  0
 25 33  1  0  0  0  0
 27 23  1  0  0  0  0
 28 23  1  0  0  0  0
 30 24  1  0  0  0  0
 31 24  1  0  0  0  0
 32 25  1  0  0  0  0
 35 37  1  0  0  0  0
 35 36  1  0  0  0  0
 36 41  1  0  0  0  0
 36 40  1  0  0  0  0
 37 43  1  0  0  0  0
 37 44  1  0  0  0  0
 38 45  1  0  0  0  0
 38 35  1  0  0  0  0
 39 36  1  0  0  0  0
 42 37  1  0  0  0  0
 46 38  1  0  0  0  0
 47 38  1  0  0  0  0
 48 50  1  0  0  0  0
 48 49  1  0  0  0  0
 49 53  1  0  0  0  0
 49 54  1  0  0  0  0
 50 57  1  0  0  0  0
 50 56  1  0  0  0  0
 51 48  1  0  0  0  0
 51 58  1  0  0  0  0
 52 49  1  0  0  0  0
 55 50  1  0  0  0  0
 59 51  1  0  0  0  0
 60 51  1  0  0  0  0
 61 64  1  0  0  0  0
 61 62  1  0  0  0  0
 62 67  1  0  0  0  0
 62 65  1  0  0  0  0
 63 69  1  0  0  0  0
 63 61  1  0  0  0  0
 64 71  1  0  0  0  0
 64 73  1  0  0  0  0
 66 62  1  0  0  0  0
 68 63  1  0  0  0  0
 70 63  1  0  0  0  0
 72 64  1  0  0  0  0
M  END
$$$$
