PPh3
 OpenBabel07172116153D

 34 36  0  0  0  0  0  0  0  0999 V2000
   -0.7900    0.3350   -1.3606 P   0  0  0  0  0  0  0  0  0  0  0  0
   -0.3952    2.0127   -0.6778 C   0  0  0  0  0  0  0  0  0  0  0  0
    0.5906    2.7538   -1.3460 C   0  0  0  0  0  0  0  0  0  0  0  0
    0.9451    4.0271   -0.9095 C   0  0  0  0  0  0  0  0  0  0  0  0
    0.3040    4.5910    0.1925 C   0  0  0  0  0  0  0  0  0  0  0  0
   -0.6880    3.8718    0.8548 C   0  0  0  0  0  0  0  0  0  0  0  0
   -1.0341    2.5911    0.4257 C   0  0  0  0  0  0  0  0  0  0  0  0
    1.0818    2.3299   -2.2172 H   0  0  0  0  0  0  0  0  0  0  0  0
    1.7135    4.5837   -1.4369 H   0  0  0  0  0  0  0  0  0  0  0  0
    0.5717    5.5879    0.5282 H   0  0  0  0  0  0  0  0  0  0  0  0
   -1.1960    4.3068    1.7102 H   0  0  0  0  0  0  0  0  0  0  0  0
   -1.8082    2.0427    0.9507 H   0  0  0  0  0  0  0  0  0  0  0  0
   -3.6867   -1.1227    1.2690 C   0  0  0  0  0  0  0  0  0  0  0  0
   -2.4493   -0.8268    0.6985 C   0  0  0  0  0  0  0  0  0  0  0  0
   -2.3707   -0.0899   -0.4895 C   0  0  0  0  0  0  0  0  0  0  0  0
   -3.5626    0.3341   -1.0955 C   0  0  0  0  0  0  0  0  0  0  0  0
   -4.7972    0.0494   -0.5192 C   0  0  0  0  0  0  0  0  0  0  0  0
   -4.8623   -0.6831    0.6653 C   0  0  0  0  0  0  0  0  0  0  0  0
   -3.7299   -1.6979    2.1889 H   0  0  0  0  0  0  0  0  0  0  0  0
   -1.5423   -1.1758    1.1792 H   0  0  0  0  0  0  0  0  0  0  0  0
   -3.5217    0.8888   -2.0287 H   0  0  0  0  0  0  0  0  0  0  0  0
   -5.7088    0.3892   -1.0008 H   0  0  0  0  0  0  0  0  0  0  0  0
   -5.8245   -0.9152    1.1108 H   0  0  0  0  0  0  0  0  0  0  0  0
    0.6219   -2.0400   -1.0119 C   0  0  0  0  0  0  0  0  0  0  0  0
    1.5323   -2.9196   -0.4329 C   0  0  0  0  0  0  0  0  0  0  0  0
    2.2968   -2.5136    0.6598 C   0  0  0  0  0  0  0  0  0  0  0  0
    2.1407   -1.2270    1.1700 C   0  0  0  0  0  0  0  0  0  0  0  0
    1.2195   -0.3502    0.5982 C   0  0  0  0  0  0  0  0  0  0  0  0
    0.4439   -0.7472   -0.4978 C   0  0  0  0  0  0  0  0  0  0  0  0
    0.0438   -2.3580   -1.8749 H   0  0  0  0  0  0  0  0  0  0  0  0
    1.6532   -3.9178   -0.8421 H   0  0  0  0  0  0  0  0  0  0  0  0
    3.0146   -3.1944    1.1064 H   0  0  0  0  0  0  0  0  0  0  0  0
    2.7366   -0.9019    2.0174 H   0  0  0  0  0  0  0  0  0  0  0  0
    1.1083    0.6483    1.0061 H   0  0  0  0  0  0  0  0  0  0  0  0
  1  2  1  0  0  0  0
  1 29  1  0  0  0  0
  1 15  1  0  0  0  0
  2  7  1  0  0  0  0
  3  4  1  0  0  0  0
  3  2  2  0  0  0  0
  4  5  2  0  0  0  0
  5 10  1  0  0  0  0
  5  6  1  0  0  0  0
  6 11  1  0  0  0  0
  7  6  2  0  0  0  0
  7 12  1  0  0  0  0
  8  3  1  0  0  0  0
  9  4  1  0  0  0  0
 13 19  1  0  0  0  0
 14 20  1  0  0  0  0
 14 13  1  0  0  0  0
 15 14  2  0  0  0  0
 16 17  2  0  0  0  0
 16 15  1  0  0  0  0
 17 18  1  0  0  0  0
 18 23  1  0  0  0  0
 18 13  2  0  0  0  0
 21 16  1  0  0  0  0
 22 17  1  0  0  0  0
 24 29  2  0  0  0  0
 24 25  1  0  0  0  0
 25 26  2  0  0  0  0
 26 32  1  0  0  0  0
 26 27  1  0  0  0  0
 27 33  1  0  0  0  0
 28 34  1  0  0  0  0
 28 27  2  0  0  0  0
 29 28  1  0  0  0  0
 30 24  1  0  0  0  0
 31 25  1  0  0  0  0
M  END
$$$$
