PtBu3
 OpenBabel07172116153D

 40 39  0  0  0  0  0  0  0  0999 V2000
   -0.1579   -1.5987   -1.2523 P   0  0  0  0  0  0  0  0  0  0  0  0
   -0.4976    0.2554   -1.7492 C   0  0  0  0  0  0  0  0  0  0  0  0
   -0.6401    0.5823   -3.2471 C   0  0  0  0  0  0  0  0  0  0  0  0
   -1.4928    0.0830   -3.7078 H   0  0  0  0  0  0  0  0  0  0  0  0
    0.2500    0.3199   -3.8202 H   0  0  0  0  0  0  0  0  0  0  0  0
   -0.7995    1.6606   -3.3731 H   0  0  0  0  0  0  0  0  0  0  0  0
   -1.7894    0.6792   -1.0102 C   0  0  0  0  0  0  0  0  0  0  0  0
   -1.7124    0.4887    0.0629 H   0  0  0  0  0  0  0  0  0  0  0  0
   -1.9463    1.7556   -1.1465 H   0  0  0  0  0  0  0  0  0  0  0  0
   -2.6833    0.1771   -1.3731 H   0  0  0  0  0  0  0  0  0  0  0  0
    0.6153    1.1500   -1.1646 C   0  0  0  0  0  0  0  0  0  0  0  0
    1.5680    1.0448   -1.6825 H   0  0  0  0  0  0  0  0  0  0  0  0
    0.7765    0.9609   -0.1006 H   0  0  0  0  0  0  0  0  0  0  0  0
    0.3133    2.1986   -1.2644 H   0  0  0  0  0  0  0  0  0  0  0  0
   -1.2789   -2.7284   -2.3785 C   0  0  0  0  0  0  0  0  0  0  0  0
   -2.7263   -2.1962   -2.3494 C   0  0  0  0  0  0  0  0  0  0  0  0
   -3.3860   -2.9422   -2.8066 H   0  0  0  0  0  0  0  0  0  0  0  0
   -2.8561   -1.2722   -2.9115 H   0  0  0  0  0  0  0  0  0  0  0  0
   -3.0822   -2.0342   -1.3292 H   0  0  0  0  0  0  0  0  0  0  0  0
   -1.3405   -4.1120   -1.6892 C   0  0  0  0  0  0  0  0  0  0  0  0
   -0.3935   -4.6467   -1.7004 H   0  0  0  0  0  0  0  0  0  0  0  0
   -2.0725   -4.7416   -2.2086 H   0  0  0  0  0  0  0  0  0  0  0  0
   -1.6597   -4.0216   -0.6482 H   0  0  0  0  0  0  0  0  0  0  0  0
   -0.8610   -2.9099   -3.8483 C   0  0  0  0  0  0  0  0  0  0  0  0
    0.1060   -3.4027   -3.9526 H   0  0  0  0  0  0  0  0  0  0  0  0
   -0.8136   -1.9643   -4.3896 H   0  0  0  0  0  0  0  0  0  0  0  0
   -1.5954   -3.5417   -4.3635 H   0  0  0  0  0  0  0  0  0  0  0  0
    1.7020   -1.9949   -1.6844 C   0  0  0  0  0  0  0  0  0  0  0  0
    2.2596   -1.4501   -3.0113 C   0  0  0  0  0  0  0  0  0  0  0  0
    3.3011   -1.7733   -3.1320 H   0  0  0  0  0  0  0  0  0  0  0  0
    2.2617   -0.3606   -3.0504 H   0  0  0  0  0  0  0  0  0  0  0  0
    1.7069   -1.8136   -3.8782 H   0  0  0  0  0  0  0  0  0  0  0  0
    2.5508   -1.4497   -0.5115 C   0  0  0  0  0  0  0  0  0  0  0  0
    2.1994   -1.8408    0.4462 H   0  0  0  0  0  0  0  0  0  0  0  0
    2.5548   -0.3642   -0.4451 H   0  0  0  0  0  0  0  0  0  0  0  0
    3.5917   -1.7690   -0.6401 H   0  0  0  0  0  0  0  0  0  0  0  0
    1.9138   -3.5229   -1.6630 C   0  0  0  0  0  0  0  0  0  0  0  0
    1.5268   -3.9775   -0.7480 H   0  0  0  0  0  0  0  0  0  0  0  0
    2.9892   -3.7304   -1.6968 H   0  0  0  0  0  0  0  0  0  0  0  0
    1.4669   -4.0308   -2.5169 H   0  0  0  0  0  0  0  0  0  0  0  0
  2  1  1  0  0  0  0
  2 11  1  0  0  0  0
  2  7  1  0  0  0  0
  3  2  1  0  0  0  0
  4  3  1  0  0  0  0
  5  3  1  0  0  0  0
  6  3  1  0  0  0  0
  7  8  1  0  0  0  0
  9  7  1  0  0  0  0
 10  7  1  0  0  0  0
 11 13  1  0  0  0  0
 12 11  1  0  0  0  0
 14 11  1  0  0  0  0
 15 16  1  0  0  0  0
 15 20  1  0  0  0  0
 15  1  1  0  0  0  0
 16 19  1  0  0  0  0
 17 16  1  0  0  0  0
 18 16  1  0  0  0  0
 20 23  1  0  0  0  0
 21 20  1  0  0  0  0
 22 20  1  0  0  0  0
 24 15  1  0  0  0  0
 25 24  1  0  0  0  0
 26 24  1  0  0  0  0
 27 24  1  0  0  0  0
 28 37  1  0  0  0  0
 28  1  1  0  0  0  0
 28 33  1  0  0  0  0
 29 28  1  0  0  0  0
 30 29  1  0  0  0  0
 31 29  1  0  0  0  0
 32 29  1  0  0  0  0
 33 35  1  0  0  0  0
 33 34  1  0  0  0  0
 36 33  1  0  0  0  0
 37 38  1  0  0  0  0
 39 37  1  0  0  0  0
 40 37  1  0  0  0  0
M  END
$$$$
