Xantphos
 OpenBabel07172116153D

 74 80  0  0  0  0  0  0  0  0999 V2000
    0.5682   -4.8893    1.6245 C   0  0  0  0  0  0  0  0  0  0  0  0
    0.6667   -3.8412    0.4933 C   0  0  0  0  0  0  0  0  0  0  0  0
    1.7591   -2.8311    0.8365 C   0  0  0  0  0  0  0  0  0  0  0  0
    1.5009   -1.4657    0.9008 C   0  0  0  0  0  0  0  0  0  0  0  0
    2.4882   -0.5132    1.2063 C   0  0  0  0  0  0  0  0  0  0  0  0
    3.7815   -0.9699    1.4514 C   0  0  0  0  0  0  0  0  0  0  0  0
    4.0727   -2.3320    1.3936 C   0  0  0  0  0  0  0  0  0  0  0  0
    3.0725   -3.2449    1.0911 C   0  0  0  0  0  0  0  0  0  0  0  0
    1.9550    1.2489    1.3766 P   0  0  0  0  0  0  0  0  0  0  0  0
    1.5700    1.6890   -0.3726 C   0  0  0  0  0  0  0  0  0  0  0  0
    0.9303    2.9134   -0.5915 C   0  0  0  0  0  0  0  0  0  0  0  0
    0.6254    3.3325   -1.8820 C   0  0  0  0  0  0  0  0  0  0  0  0
    0.9366    2.5234   -2.9711 C   0  0  0  0  0  0  0  0  0  0  0  0
    1.5612    1.2975   -2.7623 C   0  0  0  0  0  0  0  0  0  0  0  0
    1.8819    0.8843   -1.4720 C   0  0  0  0  0  0  0  0  0  0  0  0
    3.6027    2.0633    1.5859 C   0  0  0  0  0  0  0  0  0  0  0  0
    4.4416    2.4113    0.5213 C   0  0  0  0  0  0  0  0  0  0  0  0
    5.6759    3.0087    0.7612 C   0  0  0  0  0  0  0  0  0  0  0  0
    6.0920    3.2607    2.0673 C   0  0  0  0  0  0  0  0  0  0  0  0
    5.2641    2.9200    3.1344 C   0  0  0  0  0  0  0  0  0  0  0  0
    4.0243    2.3333    2.8931 C   0  0  0  0  0  0  0  0  0  0  0  0
    0.2618   -0.9362    0.6462 O   0  0  0  0  0  0  0  0  0  0  0  0
   -0.8123   -1.7520    0.4109 C   0  0  0  0  0  0  0  0  0  0  0  0
   -0.6823   -3.1399    0.3323 C   0  0  0  0  0  0  0  0  0  0  0  0
   -1.8426   -3.8771    0.0783 C   0  0  0  0  0  0  0  0  0  0  0  0
   -3.0762   -3.2606   -0.0835 C   0  0  0  0  0  0  0  0  0  0  0  0
   -3.1722   -1.8751   -0.0012 C   0  0  0  0  0  0  0  0  0  0  0  0
   -2.0423   -1.0951    0.2411 C   0  0  0  0  0  0  0  0  0  0  0  0
   -2.0924    0.7603    0.3433 P   0  0  0  0  0  0  0  0  0  0  0  0
   -2.1944    1.1959   -1.4479 C   0  0  0  0  0  0  0  0  0  0  0  0
   -1.8921    0.3044   -2.4793 C   0  0  0  0  0  0  0  0  0  0  0  0
   -1.9627    0.7108   -3.8107 C   0  0  0  0  0  0  0  0  0  0  0  0
   -2.3465    2.0089   -4.1308 C   0  0  0  0  0  0  0  0  0  0  0  0
   -2.6404    2.9099   -3.1080 C   0  0  0  0  0  0  0  0  0  0  0  0
   -2.5479    2.5112   -1.7805 C   0  0  0  0  0  0  0  0  0  0  0  0
   -3.8577    0.9894    0.8549 C   0  0  0  0  0  0  0  0  0  0  0  0
   -4.9397    1.1016   -0.0260 C   0  0  0  0  0  0  0  0  0  0  0  0
   -6.2353    1.2589    0.4608 C   0  0  0  0  0  0  0  0  0  0  0  0
   -6.4700    1.2992    1.8332 C   0  0  0  0  0  0  0  0  0  0  0  0
   -5.4003    1.1889    2.7193 C   0  0  0  0  0  0  0  0  0  0  0  0
   -4.1047    1.0442    2.2324 C   0  0  0  0  0  0  0  0  0  0  0  0
    1.0297   -4.5426   -0.8362 C   0  0  0  0  0  0  0  0  0  0  0  0
    1.5143   -5.4180    1.7543 H   0  0  0  0  0  0  0  0  0  0  0  0
   -0.1977   -5.6357    1.4051 H   0  0  0  0  0  0  0  0  0  0  0  0
    0.3145   -4.4097    2.5716 H   0  0  0  0  0  0  0  0  0  0  0  0
    4.5638   -0.2589    1.6853 H   0  0  0  0  0  0  0  0  0  0  0  0
    5.0834   -2.6776    1.5826 H   0  0  0  0  0  0  0  0  0  0  0  0
    3.3151   -4.3008    1.0465 H   0  0  0  0  0  0  0  0  0  0  0  0
    0.6591    3.5340    0.2568 H   0  0  0  0  0  0  0  0  0  0  0  0
    0.1214    4.2799   -2.0372 H   0  0  0  0  0  0  0  0  0  0  0  0
    0.6708    2.8364   -3.9740 H   0  0  0  0  0  0  0  0  0  0  0  0
    1.7957    0.6568   -3.6065 H   0  0  0  0  0  0  0  0  0  0  0  0
    2.3775   -0.0676   -1.3202 H   0  0  0  0  0  0  0  0  0  0  0  0
    4.1248    2.2155   -0.4964 H   0  0  0  0  0  0  0  0  0  0  0  0
    6.3153    3.2769   -0.0739 H   0  0  0  0  0  0  0  0  0  0  0  0
    7.0548    3.7260    2.2521 H   0  0  0  0  0  0  0  0  0  0  0  0
    5.5787    3.1201    4.1536 H   0  0  0  0  0  0  0  0  0  0  0  0
    3.3742    2.0814    3.7256 H   0  0  0  0  0  0  0  0  0  0  0  0
   -1.7792   -4.9571    0.0062 H   0  0  0  0  0  0  0  0  0  0  0  0
   -3.9617   -3.8572   -0.2742 H   0  0  0  0  0  0  0  0  0  0  0  0
   -4.1340   -1.3933   -0.1237 H   0  0  0  0  0  0  0  0  0  0  0  0
   -1.6111   -0.7153   -2.2456 H   0  0  0  0  0  0  0  0  0  0  0  0
   -1.7231    0.0044   -4.5992 H   0  0  0  0  0  0  0  0  0  0  0  0
   -2.4124    2.3199   -5.1683 H   0  0  0  0  0  0  0  0  0  0  0  0
   -2.9331    3.9278   -3.3456 H   0  0  0  0  0  0  0  0  0  0  0  0
   -2.7676    3.2235   -0.9911 H   0  0  0  0  0  0  0  0  0  0  0  0
   -4.7691    1.0692   -1.0955 H   0  0  0  0  0  0  0  0  0  0  0  0
   -7.0637    1.3468   -0.2351 H   0  0  0  0  0  0  0  0  0  0  0  0
   -7.4801    1.4213    2.2104 H   0  0  0  0  0  0  0  0  0  0  0  0
   -5.5738    1.2262    3.7899 H   0  0  0  0  0  0  0  0  0  0  0  0
   -3.2717    0.9751    2.9255 H   0  0  0  0  0  0  0  0  0  0  0  0
    1.1015   -3.8146   -1.6469 H   0  0  0  0  0  0  0  0  0  0  0  0
    1.9896   -5.0578   -0.7571 H   0  0  0  0  0  0  0  0  0  0  0  0
    0.2730   -5.2817   -1.1094 H   0  0  0  0  0  0  0  0  0  0  0  0
  1 43  1  0  0  0  0
  1 45  1  0  0  0  0
  2  3  1  0  0  0  0
  2  1  1  0  0  0  0
  3  4  2  0  0  0  0
  3  8  1  0  0  0  0
  4  5  1  0  0  0  0
  5  9  1  0  0  0  0
  5  6  2  0  0  0  0
  6 46  1  0  0  0  0
  7  6  1  0  0  0  0
  7 47  1  0  0  0  0
  8  7  2  0  0  0  0
  9 16  1  0  0  0  0
 10  9  1  0  0  0  0
 11 10  1  0  0  0  0
 11 49  1  0  0  0  0
 12 11  2  0  0  0  0
 13 14  2  0  0  0  0
 13 12  1  0  0  0  0
 14 15  1  0  0  0  0
 15 53  1  0  0  0  0
 15 10  2  0  0  0  0
 16 21  1  0  0  0  0
 17 18  1  0  0  0  0
 17 16  2  0  0  0  0
 18 19  2  0  0  0  0
 19 56  1  0  0  0  0
 19 20  1  0  0  0  0
 20 57  1  0  0  0  0
 21 20  2  0  0  0  0
 21 58  1  0  0  0  0
 22  4  1  0  0  0  0
 23 22  1  0  0  0  0
 24 23  1  0  0  0  0
 24  2  1  0  0  0  0
 25 24  2  0  0  0  0
 26 27  2  0  0  0  0
 26 25  1  0  0  0  0
 27 28  1  0  0  0  0
 28 29  1  0  0  0  0
 28 23  2  0  0  0  0
 29 36  1  0  0  0  0
 30 29  1  0  0  0  0
 31 62  1  0  0  0  0
 31 30  2  0  0  0  0
 32 31  1  0  0  0  0
 33 32  2  0  0  0  0
 33 34  1  0  0  0  0
 34 35  2  0  0  0  0
 35 30  1  0  0  0  0
 35 66  1  0  0  0  0
 36 41  1  0  0  0  0
 37 38  1  0  0  0  0
 37 36  2  0  0  0  0
 38 39  2  0  0  0  0
 39 69  1  0  0  0  0
 39 40  1  0  0  0  0
 40 70  1  0  0  0  0
 41 40  2  0  0  0  0
 41 71  1  0  0  0  0
 42 73  1  0  0  0  0
 42  2  1  0  0  0  0
 44  1  1  0  0  0  0
 48  8  1  0  0  0  0
 50 12  1  0  0  0  0
 51 13  1  0  0  0  0
 52 14  1  0  0  0  0
 54 17  1  0  0  0  0
 55 18  1  0  0  0  0
 59 25  1  0  0  0  0
 60 26  1  0  0  0  0
 61 27  1  0  0  0  0
 63 32  1  0  0  0  0
 64 33  1  0  0  0  0
 65 34  1  0  0  0  0
 67 37  1  0  0  0  0
 68 38  1  0  0  0  0
 72 42  1  0  0  0  0
 74 42  1  0  0  0  0
M  END
$$$$
