3-methylisoxazole
 OpenBabel07172113533D

 11 11  0  0  0  0  0  0  0  0999 V2000
    1.3850    0.7620    0.0000 O   0  0  0  0  0  0  0  0  0  0  0  0
    0.0291    1.1133    0.0000 N   0  0  0  0  0  0  0  0  0  0  0  0
   -0.6341   -0.0238    0.0000 C   0  0  0  0  0  0  0  0  0  0  0  0
    0.2518   -1.1448    0.0000 C   0  0  0  0  0  0  0  0  0  0  0  0
    1.4864   -0.5777    0.0000 C   0  0  0  0  0  0  0  0  0  0  0  0
   -0.0039   -2.1939    0.0000 H   0  0  0  0  0  0  0  0  0  0  0  0
   -2.1365   -0.0276    0.0000 C   0  0  0  0  0  0  0  0  0  0  0  0
   -2.5286    0.4867    0.8834 H   0  0  0  0  0  0  0  0  0  0  0  0
   -2.5195   -1.0515    0.0000 H   0  0  0  0  0  0  0  0  0  0  0  0
   -2.5286    0.4867   -0.8834 H   0  0  0  0  0  0  0  0  0  0  0  0
    2.4918   -0.9746    0.0000 H   0  0  0  0  0  0  0  0  0  0  0  0
  1  2  1  0  0  0  0
  1  5  1  0  0  0  0
  2  3  2  0  0  0  0
  3  4  1  0  0  0  0
  3  7  1  0  0  0  0
  4  5  2  0  0  0  0
  4  6  1  0  0  0  0
  5 11  1  0  0  0  0
  7  9  1  0  0  0  0
  7  8  1  0  0  0  0
 10  7  1  0  0  0  0
M  END
$$$$
