5-phenylisoxazole
 OpenBabel07172113533D

 18 19  0  0  0  0  0  0  0  0999 V2000
    1.7042   -1.0458    0.0000 O   0  0  0  0  0  0  0  0  0  0  0  0
    3.0804   -0.7986    0.0000 N   0  0  0  0  0  0  0  0  0  0  0  0
    3.1871    0.5105    0.0000 C   0  0  0  0  0  0  0  0  0  0  0  0
    1.9273    1.1602    0.0000 C   0  0  0  0  0  0  0  0  0  0  0  0
    1.0259    0.1267    0.0000 C   0  0  0  0  0  0  0  0  0  0  0  0
    1.7294    2.2209    0.0000 H   0  0  0  0  0  0  0  0  0  0  0  0
    4.1755    0.9533    0.0000 H   0  0  0  0  0  0  0  0  0  0  0  0
   -0.4344    0.0604    0.0000 C   0  0  0  0  0  0  0  0  0  0  0  0
   -3.2389   -0.0556    0.0000 C   0  0  0  0  0  0  0  0  0  0  0  0
   -1.0957   -1.1795    0.0000 C   0  0  0  0  0  0  0  0  0  0  0  0
   -1.1975    1.2403    0.0000 C   0  0  0  0  0  0  0  0  0  0  0  0
   -2.5882    1.1808    0.0000 C   0  0  0  0  0  0  0  0  0  0  0  0
   -2.4876   -1.2325    0.0000 C   0  0  0  0  0  0  0  0  0  0  0  0
   -0.5127   -2.0942    0.0000 H   0  0  0  0  0  0  0  0  0  0  0  0
   -0.7004    2.2060    0.0000 H   0  0  0  0  0  0  0  0  0  0  0  0
   -3.1654    2.1013    0.0000 H   0  0  0  0  0  0  0  0  0  0  0  0
   -2.9868   -2.1975    0.0000 H   0  0  0  0  0  0  0  0  0  0  0  0
   -4.3244   -0.1005    0.0000 H   0  0  0  0  0  0  0  0  0  0  0  0
  1  2  1  0  0  0  0
  1  5  1  0  0  0  0
  2  3  2  0  0  0  0
  3  4  1  0  0  0  0
  3  7  1  0  0  0  0
  4  5  2  0  0  0  0
  4  6  1  0  0  0  0
  5  8  1  0  0  0  0
  8 10  2  0  0  0  0
  8 11  1  0  0  0  0
  9 12  1  0  0  0  0
  9 13  2  0  0  0  0
  9 18  1  0  0  0  0
 10 13  1  0  0  0  0
 10 14  1  0  0  0  0
 11 12  2  0  0  0  0
 11 15  1  0  0  0  0
 12 16  1  0  0  0  0
 13 17  1  0  0  0  0
M  END
$$$$
