benzo[c]isoxazole
 OpenBabel07172113533D

 14 15  0  0  0  0  0  0  0  0999 V2000
    2.3459    0.0618    0.0000 O   0  0  0  0  0  0  0  0  0  0  0  0
    1.5252    1.1913    0.0000 N   0  0  0  0  0  0  0  0  0  0  0  0
    0.2901    0.7001    0.0000 C   0  0  0  0  0  0  0  0  0  0  0  0
    0.2769   -0.7421    0.0000 C   0  0  0  0  0  0  0  0  0  0  0  0
    1.6146   -1.0590    0.0000 C   0  0  0  0  0  0  0  0  0  0  0  0
    2.1700   -1.9859    0.0000 H   0  0  0  0  0  0  0  0  0  0  0  0
   -0.9370    1.4313    0.0000 C   0  0  0  0  0  0  0  0  0  0  0  0
   -0.9256    2.5161    0.0000 H   0  0  0  0  0  0  0  0  0  0  0  0
   -2.1016    0.7124    0.0000 C   0  0  0  0  0  0  0  0  0  0  0  0
   -3.0533    1.2368    0.0000 H   0  0  0  0  0  0  0  0  0  0  0  0
   -2.1161   -0.7254    0.0000 C   0  0  0  0  0  0  0  0  0  0  0  0
   -3.0756   -1.2345    0.0000 H   0  0  0  0  0  0  0  0  0  0  0  0
   -0.9577   -1.4548    0.0000 C   0  0  0  0  0  0  0  0  0  0  0  0
   -0.9733   -2.5407    0.0000 H   0  0  0  0  0  0  0  0  0  0  0  0
  1  2  1  0  0  0  0
  1  5  1  0  0  0  0
  2  3  2  0  0  0  0
  3  4  1  0  0  0  0
  3  7  1  0  0  0  0
  4  5  2  0  0  0  0
  4 13  1  0  0  0  0
  5  6  1  0  0  0  0
  7  8  1  0  0  0  0
  7  9  2  0  0  0  0
  9 10  1  0  0  0  0
  9 11  1  0  0  0  0
 11 12  1  0  0  0  0
 11 13  2  0  0  0  0
 13 14  1  0  0  0  0
M  END
$$$$
