ethyl-3-methoxyisoxazole-5-carboxylate
 OpenBabel07172113533D

 21 21  0  0  0  0  0  0  0  0999 V2000
   -0.8013   -1.3926    0.0825 O   0  0  0  0  0  0  0  0  0  0  0  0
   -2.1416   -1.0097    0.1448 N   0  0  0  0  0  0  0  0  0  0  0  0
   -2.1335    0.3017   -0.0068 C   0  0  0  0  0  0  0  0  0  0  0  0
   -0.8182    0.8231   -0.1713 C   0  0  0  0  0  0  0  0  0  0  0  0
   -0.0402   -0.2928   -0.1050 C   0  0  0  0  0  0  0  0  0  0  0  0
   -0.5165    1.8481   -0.3136 H   0  0  0  0  0  0  0  0  0  0  0  0
    1.4228   -0.5067   -0.1968 C   0  0  0  0  0  0  0  0  0  0  0  0
    1.9622   -1.5880   -0.1211 O   0  0  0  0  0  0  0  0  0  0  0  0
    2.0494    0.6738   -0.3807 O   0  0  0  0  0  0  0  0  0  0  0  0
    3.4956    0.6235   -0.4900 C   0  0  0  0  0  0  0  0  0  0  0  0
    3.7715   -0.2724   -1.0512 H   0  0  0  0  0  0  0  0  0  0  0  0
    3.7481    1.5114   -1.0740 H   0  0  0  0  0  0  0  0  0  0  0  0
    4.1549    0.6456    0.8803 C   0  0  0  0  0  0  0  0  0  0  0  0
    3.9033   -0.2561    1.4454 H   0  0  0  0  0  0  0  0  0  0  0  0
    3.8378    1.5238    1.4518 H   0  0  0  0  0  0  0  0  0  0  0  0
    5.2440    0.6851    0.7644 H   0  0  0  0  0  0  0  0  0  0  0  0
   -3.2432    1.0484   -0.0047 O   0  0  0  0  0  0  0  0  0  0  0  0
   -4.4767    0.3357    0.1738 C   0  0  0  0  0  0  0  0  0  0  0  0
   -4.6219   -0.3906   -0.6319 H   0  0  0  0  0  0  0  0  0  0  0  0
   -5.2581    1.0956    0.1491 H   0  0  0  0  0  0  0  0  0  0  0  0
   -4.4825   -0.1897    1.1340 H   0  0  0  0  0  0  0  0  0  0  0  0
  1  2  1  0  0  0  0
  3 17  1  0  0  0  0
  3  2  2  0  0  0  0
  4  5  2  0  0  0  0
  4  3  1  0  0  0  0
  5  1  1  0  0  0  0
  6  4  1  0  0  0  0
  7  8  2  0  0  0  0
  7  5  1  0  0  0  0
  9  7  1  0  0  0  0
 10  9  1  0  0  0  0
 10 13  1  0  0  0  0
 11 10  1  0  0  0  0
 12 10  1  0  0  0  0
 13 14  1  0  0  0  0
 13 15  1  0  0  0  0
 16 13  1  0  0  0  0
 17 18  1  0  0  0  0
 18 21  1  0  0  0  0
 19 18  1  0  0  0  0
 20 18  1  0  0  0  0
M  END
$$$$
