ethyl-5-methylisoxazole-4-carboxylate
 OpenBabel07172113533D

 20 20  0  0  0  0  0  0  0  0999 V2000
    2.8090   -0.4476   -0.1694 O   0  0  0  0  0  0  0  0  0  0  0  0
    2.9593    0.9565   -0.2191 N   0  0  0  0  0  0  0  0  0  0  0  0
    1.7480    1.4233   -0.0848 C   0  0  0  0  0  0  0  0  0  0  0  0
    0.7720    0.3905    0.0559 C   0  0  0  0  0  0  0  0  0  0  0  0
    1.5142   -0.7666   -0.0069 C   0  0  0  0  0  0  0  0  0  0  0  0
   -0.6668    0.6381    0.2209 C   0  0  0  0  0  0  0  0  0  0  0  0
    1.5750    2.4916   -0.0885 H   0  0  0  0  0  0  0  0  0  0  0  0
   -1.1515    1.7530    0.2526 O   0  0  0  0  0  0  0  0  0  0  0  0
   -1.3861   -0.5044    0.3372 O   0  0  0  0  0  0  0  0  0  0  0  0
   -2.8191   -0.3497    0.4968 C   0  0  0  0  0  0  0  0  0  0  0  0
   -3.1292   -1.2588    1.0177 H   0  0  0  0  0  0  0  0  0  0  0  0
   -3.0080    0.5170    1.1342 H   0  0  0  0  0  0  0  0  0  0  0  0
   -3.5152   -0.2094   -0.8482 C   0  0  0  0  0  0  0  0  0  0  0  0
   -4.6006   -0.1693   -0.7010 H   0  0  0  0  0  0  0  0  0  0  0  0
   -3.2878   -1.0616   -1.4970 H   0  0  0  0  0  0  0  0  0  0  0  0
   -3.2026    0.7113   -1.3485 H   0  0  0  0  0  0  0  0  0  0  0  0
    1.1980   -2.2198    0.0660 C   0  0  0  0  0  0  0  0  0  0  0  0
    1.5625   -2.7334   -0.8307 H   0  0  0  0  0  0  0  0  0  0  0  0
    0.1218   -2.3632    0.1543 H   0  0  0  0  0  0  0  0  0  0  0  0
    1.6949   -2.6748    0.9306 H   0  0  0  0  0  0  0  0  0  0  0  0
  1  5  1  0  0  0  0
  2  1  1  0  0  0  0
  2  3  2  0  0  0  0
  3  4  1  0  0  0  0
  4  6  1  0  0  0  0
  5  4  2  0  0  0  0
  5 17  1  0  0  0  0
  6  8  2  0  0  0  0
  6  9  1  0  0  0  0
  7  3  1  0  0  0  0
  9 10  1  0  0  0  0
 10 11  1  0  0  0  0
 10 12  1  0  0  0  0
 13 14  1  0  0  0  0
 13 10  1  0  0  0  0
 15 13  1  0  0  0  0
 16 13  1  0  0  0  0
 17 19  1  0  0  0  0
 17 20  1  0  0  0  0
 18 17  1  0  0  0  0
M  END
$$$$
