methyl-5-(thiophen-2-yl)isoxazole-3-carboxylate
 OpenBabel07172113533D

 21 22  0  0  0  0  0  0  0  0999 V2000
   -0.0438   -1.1557    0.0078 O   0  0  0  0  0  0  0  0  0  0  0  0
   -1.4302   -1.0933    0.0099 N   0  0  0  0  0  0  0  0  0  0  0  0
   -1.7202    0.1954    0.0047 C   0  0  0  0  0  0  0  0  0  0  0  0
   -0.5534    1.0055   -0.0004 C   0  0  0  0  0  0  0  0  0  0  0  0
    0.4747    0.1027    0.0013 C   0  0  0  0  0  0  0  0  0  0  0  0
   -0.5208    2.0828   -0.0034 H   0  0  0  0  0  0  0  0  0  0  0  0
   -3.1018    0.7836    0.0089 C   0  0  0  0  0  0  0  0  0  0  0  0
   -4.2033    0.0145   -0.0028 O   0  0  0  0  0  0  0  0  0  0  0  0
   -4.1972   -1.4236   -0.0297 C   0  0  0  0  0  0  0  0  0  0  0  0
   -3.6937   -1.8016   -0.9217 H   0  0  0  0  0  0  0  0  0  0  0  0
   -5.2523   -1.7005   -0.0465 H   0  0  0  0  0  0  0  0  0  0  0  0
   -3.7129   -1.8346    0.8582 H   0  0  0  0  0  0  0  0  0  0  0  0
   -3.2198    1.9897    0.0234 O   0  0  0  0  0  0  0  0  0  0  0  0
    1.9123    0.2251   -0.0027 C   0  0  0  0  0  0  0  0  0  0  0  0
    2.9500   -1.1837    0.0139 S   0  0  0  0  0  0  0  0  0  0  0  0
    4.3655   -0.1881   -0.0023 C   0  0  0  0  0  0  0  0  0  0  0  0
    4.0576    1.1470   -0.0186 C   0  0  0  0  0  0  0  0  0  0  0  0
    2.6570    1.3855   -0.0188 C   0  0  0  0  0  0  0  0  0  0  0  0
    5.3445   -0.6482    0.0015 H   0  0  0  0  0  0  0  0  0  0  0  0
    4.8035    1.9338   -0.0302 H   0  0  0  0  0  0  0  0  0  0  0  0
    2.2110    2.3739   -0.0309 H   0  0  0  0  0  0  0  0  0  0  0  0
  1  2  1  0  0  0  0
  3  7  1  0  0  0  0
  3  2  2  0  0  0  0
  4  5  2  0  0  0  0
  4  3  1  0  0  0  0
  5  1  1  0  0  0  0
  6  4  1  0  0  0  0
  7 13  2  0  0  0  0
  8  7  1  0  0  0  0
  9  8  1  0  0  0  0
  9 12  1  0  0  0  0
 10  9  1  0  0  0  0
 11  9  1  0  0  0  0
 14  5  1  0  0  0  0
 14 15  1  0  0  0  0
 16 19  1  0  0  0  0
 16 15  1  0  0  0  0
 17 16  2  0  0  0  0
 18 17  1  0  0  0  0
 18 14  2  0  0  0  0
 20 17  1  0  0  0  0
 21 18  1  0  0  0  0
M  END
$$$$
