methyl-isoxazole-5-carboxylate
 OpenBabel07172113533D

 14 14  0  0  0  0  0  0  0  0999 V2000
    1.3887   -1.0235    0.0000 O   0  0  0  0  0  0  0  0  0  0  0  0
    2.6741   -0.5017    0.0000 N   0  0  0  0  0  0  0  0  0  0  0  0
    2.5262    0.8058    0.0000 C   0  0  0  0  0  0  0  0  0  0  0  0
    1.1605    1.1894    0.0000 C   0  0  0  0  0  0  0  0  0  0  0  0
    0.5010   -0.0067    0.0000 C   0  0  0  0  0  0  0  0  0  0  0  0
    3.4089    1.4326    0.0000 H   0  0  0  0  0  0  0  0  0  0  0  0
    0.7323    2.1793    0.0000 H   0  0  0  0  0  0  0  0  0  0  0  0
   -0.9333   -0.3717    0.0000 C   0  0  0  0  0  0  0  0  0  0  0  0
   -1.3601   -1.5036    0.0000 O   0  0  0  0  0  0  0  0  0  0  0  0
   -1.6935    0.7437    0.0000 O   0  0  0  0  0  0  0  0  0  0  0  0
   -3.1136    0.5110    0.0000 C   0  0  0  0  0  0  0  0  0  0  0  0
   -3.4081   -0.0504   -0.8904 H   0  0  0  0  0  0  0  0  0  0  0  0
   -3.4081   -0.0504    0.8904 H   0  0  0  0  0  0  0  0  0  0  0  0
   -3.5694    1.5010    0.0000 H   0  0  0  0  0  0  0  0  0  0  0  0
  1  2  1  0  0  0  0
  1  5  1  0  0  0  0
  2  3  2  0  0  0  0
  3  4  1  0  0  0  0
  3  6  1  0  0  0  0
  4  5  2  0  0  0  0
  4  7  1  0  0  0  0
  5  8  1  0  0  0  0
  8  9  2  0  0  0  0
  8 10  1  0  0  0  0
 10 11  1  0  0  0  0
 11 14  1  0  0  0  0
 11 13  1  0  0  0  0
 12 11  1  0  0  0  0
M  END
$$$$
