N,N-dibenzylisoxazol-5-amine
 OpenBabel07172113533D

 36 38  0  0  0  0  0  0  0  0999 V2000
   -0.6859   -2.9284   -0.4802 O   0  0  0  0  0  0  0  0  0  0  0  0
   -1.8368   -3.6712   -0.8663 N   0  0  0  0  0  0  0  0  0  0  0  0
   -2.8424   -2.9241   -0.4768 C   0  0  0  0  0  0  0  0  0  0  0  0
   -2.4495   -1.7207    0.1589 C   0  0  0  0  0  0  0  0  0  0  0  0
   -1.0744   -1.7837    0.1207 C   0  0  0  0  0  0  0  0  0  0  0  0
   -3.0727   -0.9331    0.5482 H   0  0  0  0  0  0  0  0  0  0  0  0
   -3.8488   -3.2808   -0.6633 H   0  0  0  0  0  0  0  0  0  0  0  0
   -0.0872   -0.9205    0.5281 N   0  0  0  0  0  0  0  0  0  0  0  0
   -0.5036    0.2345    1.3283 C   0  0  0  0  0  0  0  0  0  0  0  0
    0.4202    0.6933    1.6970 H   0  0  0  0  0  0  0  0  0  0  0  0
   -1.0725   -0.0960    2.2124 H   0  0  0  0  0  0  0  0  0  0  0  0
    1.2575   -1.4588    0.8054 C   0  0  0  0  0  0  0  0  0  0  0  0
    1.3731   -1.6434    1.8846 H   0  0  0  0  0  0  0  0  0  0  0  0
    1.3269   -2.4264    0.3062 H   0  0  0  0  0  0  0  0  0  0  0  0
   -1.3031    1.2833    0.5731 C   0  0  0  0  0  0  0  0  0  0  0  0
   -2.7303    3.3125   -0.7454 C   0  0  0  0  0  0  0  0  0  0  0  0
   -2.4013    1.8967    1.1859 C   0  0  0  0  0  0  0  0  0  0  0  0
   -0.9259    1.6981   -0.7099 C   0  0  0  0  0  0  0  0  0  0  0  0
   -1.6359    2.7037   -1.3648 C   0  0  0  0  0  0  0  0  0  0  0  0
   -3.1111    2.9072    0.5338 C   0  0  0  0  0  0  0  0  0  0  0  0
   -2.7046    1.5814    2.1825 H   0  0  0  0  0  0  0  0  0  0  0  0
   -0.0758    1.2259   -1.1932 H   0  0  0  0  0  0  0  0  0  0  0  0
   -1.3341    3.0134   -2.3620 H   0  0  0  0  0  0  0  0  0  0  0  0
   -3.9632    3.3712    1.0236 H   0  0  0  0  0  0  0  0  0  0  0  0
   -3.2832    4.0948   -1.2584 H   0  0  0  0  0  0  0  0  0  0  0  0
    2.3658   -0.5459    0.3199 C   0  0  0  0  0  0  0  0  0  0  0  0
    4.4413    1.1101   -0.5982 C   0  0  0  0  0  0  0  0  0  0  0  0
    3.2799    0.0145    1.2172 C   0  0  0  0  0  0  0  0  0  0  0  0
    2.5046   -0.2687   -1.0482 C   0  0  0  0  0  0  0  0  0  0  0  0
    3.5332    0.5532   -1.5042 C   0  0  0  0  0  0  0  0  0  0  0  0
    4.3139    0.8383    0.7631 C   0  0  0  0  0  0  0  0  0  0  0  0
    3.1861   -0.1989    2.2801 H   0  0  0  0  0  0  0  0  0  0  0  0
    1.8022   -0.7066   -1.7535 H   0  0  0  0  0  0  0  0  0  0  0  0
    3.6318    0.7560   -2.5673 H   0  0  0  0  0  0  0  0  0  0  0  0
    5.0155    1.2664    1.4740 H   0  0  0  0  0  0  0  0  0  0  0  0
    5.2436    1.7504   -0.9547 H   0  0  0  0  0  0  0  0  0  0  0  0
  1  5  1  0  0  0  0
  2  1  1  0  0  0  0
  2  3  2  0  0  0  0
  3  4  1  0  0  0  0
  4  6  1  0  0  0  0
  5  4  2  0  0  0  0
  5  8  1  0  0  0  0
  7  3  1  0  0  0  0
  8 12  1  0  0  0  0
  8  9  1  0  0  0  0
  9 10  1  0  0  0  0
  9 11  1  0  0  0  0
 12 13  1  0  0  0  0
 14 12  1  0  0  0  0
 15 17  1  0  0  0  0
 15  9  1  0  0  0  0
 16 20  1  0  0  0  0
 17 21  1  0  0  0  0
 18 15  2  0  0  0  0
 19 16  2  0  0  0  0
 19 18  1  0  0  0  0
 20 24  1  0  0  0  0
 20 17  2  0  0  0  0
 22 18  1  0  0  0  0
 23 19  1  0  0  0  0
 25 16  1  0  0  0  0
 26 12  1  0  0  0  0
 26 28  1  0  0  0  0
 27 31  1  0  0  0  0
 28 32  1  0  0  0  0
 29 26  2  0  0  0  0
 30 29  1  0  0  0  0
 30 27  2  0  0  0  0
 31 28  2  0  0  0  0
 31 35  1  0  0  0  0
 33 29  1  0  0  0  0
 34 30  1  0  0  0  0
 36 27  1  0  0  0  0
M  END
$$$$
