NaOH
 OpenBabel07172116153D

  3  2  0  0  0  0  0  0  0  0999 V2000
    4.1751    0.4881    0.0000 Na  0  0  0  0  0  0  0  0  0  0  0  0
    2.3393   -0.0748    0.0000 O   0  0  0  0  0  0  0  0  0  0  0  0
    1.4255   -0.3533    0.0000 H   0  0  0  0  0  0  0  0  0  0  0  0
  1  2  1  0  0  0  0
  2  3  1  0  0  0  0
M  END
$$$$
