382_i
 OpenBabel07172110463D

 84 90  0  0  0  0  0  0  0  0999 V2000
   -1.8062   -3.4055    3.6910 C   0  0  0  0  0  0  0  0  0  0  0  0
   -0.4536   -3.5456    3.3067 C   0  0  0  0  0  0  0  0  0  0  0  0
   -0.0079   -3.0354    2.1109 C   0  0  0  0  0  0  0  0  0  0  0  0
   -0.8907   -2.3532    1.2312 C   0  0  0  0  0  0  0  0  0  0  0  0
   -2.2504   -2.1775    1.6408 C   0  0  0  0  0  0  0  0  0  0  0  0
   -2.6806   -2.7321    2.8759 C   0  0  0  0  0  0  0  0  0  0  0  0
   -0.4713   -1.7919   -0.0204 C   0  0  0  0  0  0  0  0  0  0  0  0
   -1.3762   -1.0157   -0.7216 C   0  0  0  0  0  0  0  0  0  0  0  0
   -2.7355   -0.8435   -0.3493 C   0  0  0  0  0  0  0  0  0  0  0  0
   -3.1409   -1.4452    0.8218 C   0  0  0  0  0  0  0  0  0  0  0  0
    0.9053   -1.9957   -0.5597 C   0  0  0  0  0  0  0  0  0  0  0  0
    1.4224   -3.3089   -0.8295 C   0  0  0  0  0  0  0  0  0  0  0  0
    2.7698   -3.4408   -1.2916 C   0  0  0  0  0  0  0  0  0  0  0  0
    3.5518   -2.2793   -1.4997 C   0  0  0  0  0  0  0  0  0  0  0  0
    3.0468   -1.0124   -1.3104 C   0  0  0  0  0  0  0  0  0  0  0  0
    1.7021   -0.9060   -0.8600 C   0  0  0  0  0  0  0  0  0  0  0  0
    0.6417   -4.4891   -0.7031 C   0  0  0  0  0  0  0  0  0  0  0  0
    1.1747   -5.7259   -0.9784 C   0  0  0  0  0  0  0  0  0  0  0  0
    2.5183   -5.8555   -1.3943 C   0  0  0  0  0  0  0  0  0  0  0  0
    3.2942   -4.7344   -1.5511 C   0  0  0  0  0  0  0  0  0  0  0  0
   -0.9284   -0.3651   -1.8798 O   0  0  0  0  0  0  0  0  0  0  0  0
    1.1836    0.3791   -0.7031 O   0  0  0  0  0  0  0  0  0  0  0  0
    0.0190    0.9407   -1.6830 P   0  0  0  0  0  0  0  0  0  0  0  0
   -0.5722    2.1742   -1.1628 O   0  0  0  0  0  0  0  0  0  0  0  0
    0.6364    1.0913   -3.1459 O   0  0  0  0  0  0  0  0  0  0  0  0
   -3.6883   -0.0876   -1.2071 C   0  0  0  0  0  0  0  0  0  0  0  0
    3.8689    0.1879   -1.6239 C   0  0  0  0  0  0  0  0  0  0  0  0
    4.3952    0.3425   -2.9093 C   0  0  0  0  0  0  0  0  0  0  0  0
    5.1772    1.4424   -3.2511 C   0  0  0  0  0  0  0  0  0  0  0  0
    5.4478    2.3996   -2.2808 C   0  0  0  0  0  0  0  0  0  0  0  0
    4.9559    2.2580   -0.9851 C   0  0  0  0  0  0  0  0  0  0  0  0
    4.1654    1.1566   -0.6366 C   0  0  0  0  0  0  0  0  0  0  0  0
   -4.4623    0.9742   -0.6895 C   0  0  0  0  0  0  0  0  0  0  0  0
   -5.3938    1.6111   -1.5179 C   0  0  0  0  0  0  0  0  0  0  0  0
   -5.5451    1.2275   -2.8458 C   0  0  0  0  0  0  0  0  0  0  0  0
   -4.7766    0.1913   -3.3684 C   0  0  0  0  0  0  0  0  0  0  0  0
   -3.8631   -0.4571   -2.5462 C   0  0  0  0  0  0  0  0  0  0  0  0
   -4.3030    1.2761    0.6311 O   0  0  0  0  0  0  0  0  0  0  0  0
   -4.1559    2.6445    1.1582 C   0  0  0  0  0  0  0  0  0  0  0  0
   -3.4664    3.5790    0.1635 C   0  0  0  0  0  0  0  0  0  0  0  0
   -5.5327    3.1633    1.5888 C   0  0  0  0  0  0  0  0  0  0  0  0
   -3.2681    2.4339    2.3874 C   0  0  0  0  0  0  0  0  0  0  0  0
    3.7029    0.8726    0.6064 O   0  0  0  0  0  0  0  0  0  0  0  0
    3.4360    1.8420    1.6753 C   0  0  0  0  0  0  0  0  0  0  0  0
    4.7453    2.2266    2.3767 C   0  0  0  0  0  0  0  0  0  0  0  0
    2.5606    1.0294    2.6334 C   0  0  0  0  0  0  0  0  0  0  0  0
    2.6564    3.0557    1.1623 C   0  0  0  0  0  0  0  0  0  0  0  0
   -2.1455   -3.8192    4.6351 H   0  0  0  0  0  0  0  0  0  0  0  0
    0.2420   -4.0560    3.9651 H   0  0  0  0  0  0  0  0  0  0  0  0
    1.0344   -3.1426    1.8390 H   0  0  0  0  0  0  0  0  0  0  0  0
   -3.7179   -2.6012    3.1691 H   0  0  0  0  0  0  0  0  0  0  0  0
   -4.1699   -1.3312    1.1415 H   0  0  0  0  0  0  0  0  0  0  0  0
    4.5813   -2.3928   -1.8244 H   0  0  0  0  0  0  0  0  0  0  0  0
   -0.3922   -4.4110   -0.3930 H   0  0  0  0  0  0  0  0  0  0  0  0
    0.5551   -6.6112   -0.8788 H   0  0  0  0  0  0  0  0  0  0  0  0
    2.9286   -6.8387   -1.6003 H   0  0  0  0  0  0  0  0  0  0  0  0
    4.3232   -4.8197   -1.8877 H   0  0  0  0  0  0  0  0  0  0  0  0
    1.0422    0.3041   -3.5298 H   0  0  0  0  0  0  0  0  0  0  0  0
    4.1690   -0.4119   -3.6570 H   0  0  0  0  0  0  0  0  0  0  0  0
    5.5632    1.5491   -4.2590 H   0  0  0  0  0  0  0  0  0  0  0  0
    6.0549    3.2664   -2.5223 H   0  0  0  0  0  0  0  0  0  0  0  0
    5.2107    3.0038   -0.2469 H   0  0  0  0  0  0  0  0  0  0  0  0
   -6.0129    2.4026   -1.1171 H   0  0  0  0  0  0  0  0  0  0  0  0
   -6.2729    1.7383   -3.4686 H   0  0  0  0  0  0  0  0  0  0  0  0
   -4.8928   -0.1154   -4.4024 H   0  0  0  0  0  0  0  0  0  0  0  0
   -3.2667   -1.2710   -2.9436 H   0  0  0  0  0  0  0  0  0  0  0  0
   -4.0867    3.7981   -0.7067 H   0  0  0  0  0  0  0  0  0  0  0  0
   -2.5221    3.1601   -0.1887 H   0  0  0  0  0  0  0  0  0  0  0  0
   -3.2531    4.5296    0.6604 H   0  0  0  0  0  0  0  0  0  0  0  0
   -6.0268    2.4346    2.2358 H   0  0  0  0  0  0  0  0  0  0  0  0
   -5.4282    4.0987    2.1459 H   0  0  0  0  0  0  0  0  0  0  0  0
   -6.1871    3.3607    0.7379 H   0  0  0  0  0  0  0  0  0  0  0  0
   -3.7181    1.7009    3.0610 H   0  0  0  0  0  0  0  0  0  0  0  0
   -2.2858    2.0660    2.0871 H   0  0  0  0  0  0  0  0  0  0  0  0
   -3.1370    3.3713    2.9344 H   0  0  0  0  0  0  0  0  0  0  0  0
    4.5279    2.7878    3.2895 H   0  0  0  0  0  0  0  0  0  0  0  0
    5.3954    2.8472    1.7596 H   0  0  0  0  0  0  0  0  0  0  0  0
    5.3007    1.3281    2.6553 H   0  0  0  0  0  0  0  0  0  0  0  0
    1.6296    0.7400    2.1445 H   0  0  0  0  0  0  0  0  0  0  0  0
    2.3195    1.6152    3.5238 H   0  0  0  0  0  0  0  0  0  0  0  0
    3.0810    0.1218    2.9473 H   0  0  0  0  0  0  0  0  0  0  0  0
    1.7543    2.7404    0.6363 H   0  0  0  0  0  0  0  0  0  0  0  0
    3.2392    3.6858    0.4903 H   0  0  0  0  0  0  0  0  0  0  0  0
    2.3544    3.6745    2.0116 H   0  0  0  0  0  0  0  0  0  0  0  0
  1 48  1  0  0  0  0
  2  1  1  0  0  0  0
  2 49  1  0  0  0  0
  3  2  2  0  0  0  0
  4  5  1  0  0  0  0
  4  3  1  0  0  0  0
  5  6  1  0  0  0  0
  6 51  1  0  0  0  0
  6  1  2  0  0  0  0
  7  4  2  0  0  0  0
  8  9  2  0  0  0  0
  8  7  1  0  0  0  0
  9 10  1  0  0  0  0
 10 52  1  0  0  0  0
 10  5  2  0  0  0  0
 11  7  1  0  0  0  0
 12 17  1  0  0  0  0
 12 11  1  0  0  0  0
 13 12  2  0  0  0  0
 14 15  2  0  0  0  0
 14 13  1  0  0  0  0
 15 16  1  0  0  0  0
 16 22  1  0  0  0  0
 16 11  2  0  0  0  0
 17 54  1  0  0  0  0
 18 55  1  0  0  0  0
 18 17  2  0  0  0  0
 19 18  1  0  0  0  0
 20 19  2  0  0  0  0
 20 13  1  0  0  0  0
 21 23  1  0  0  0  0
 21  8  1  0  0  0  0
 23 24  2  0  0  0  0
 23 22  1  0  0  0  0
 25 23  1  0  0  0  0
 26 33  1  0  0  0  0
 26  9  1  0  0  0  0
 27 15  1  0  0  0  0
 27 32  1  0  0  0  0
 28 27  2  0  0  0  0
 29 28  1  0  0  0  0
 29 30  2  0  0  0  0
 30 31  1  0  0  0  0
 31 32  2  0  0  0  0
 31 62  1  0  0  0  0
 32 43  1  0  0  0  0
 33 38  1  0  0  0  0
 34 63  1  0  0  0  0
 34 33  2  0  0  0  0
 35 34  1  0  0  0  0
 36 35  2  0  0  0  0
 36 37  1  0  0  0  0
 37 26  2  0  0  0  0
 38 39  1  0  0  0  0
 39 41  1  0  0  0  0
 39 42  1  0  0  0  0
 40 69  1  0  0  0  0
 40 39  1  0  0  0  0
 41 71  1  0  0  0  0
 41 70  1  0  0  0  0
 42 75  1  0  0  0  0
 42 73  1  0  0  0  0
 43 44  1  0  0  0  0
 44 45  1  0  0  0  0
 44 46  1  0  0  0  0
 45 78  1  0  0  0  0
 45 76  1  0  0  0  0
 46 81  1  0  0  0  0
 46 80  1  0  0  0  0
 47 44  1  0  0  0  0
 47 84  1  0  0  0  0
 50  3  1  0  0  0  0
 53 14  1  0  0  0  0
 56 19  1  0  0  0  0
 57 20  1  0  0  0  0
 58 25  1  0  0  0  0
 59 28  1  0  0  0  0
 60 29  1  0  0  0  0
 61 30  1  0  0  0  0
 64 35  1  0  0  0  0
 65 36  1  0  0  0  0
 66 37  1  0  0  0  0
 67 40  1  0  0  0  0
 68 40  1  0  0  0  0
 72 41  1  0  0  0  0
 74 42  1  0  0  0  0
 77 45  1  0  0  0  0
 79 46  1  0  0  0  0
 82 47  1  0  0  0  0
 83 47  1  0  0  0  0
M  END
$$$$
